aqu_catunit.ele: written by SWAT+ editor v2.3.3 on 2024-01-30 23:01 for SWAT+ rev.60.5.7
      id  name                   obj_typ  obj_typ_no      bsn_frac      sub_frac      reg_frac  
       1  aqu010                     aqu           1       0.00760       0.00000       0.00000  
       2  aqu020                     aqu           2       0.00265       0.00000       0.00000  
       3  aqu030                     aqu           3       0.02569       0.00000       0.00000  
       4  aqu040                     aqu           4       0.04928       0.00000       0.00000  
       5  aqu050                     aqu           5       0.01329       0.00000       0.00000  
       6  aqu060                     aqu           6       0.04242       0.00000       0.00000  
       7  aqu070                     aqu           7       0.03330       0.00000       0.00000  
       8  aqu080                     aqu           8       0.03074       0.00000       0.00000  
       9  aqu090                     aqu           9       0.01651       0.00000       0.00000  
      10  aqu100                     aqu          10       0.11520       0.00000       0.00000  
      11  aqu110                     aqu          11       0.02720       0.00000       0.00000  
      12  aqu120                     aqu          12       0.00016       0.00000       0.00000  
      13  aqu130                     aqu          13       0.00004       0.00000       0.00000  
      14  aqu140                     aqu          14       0.06551       0.00000       0.00000  
      15  aqu150                     aqu          15       0.00048       0.00000       0.00000  
      16  aqu160                     aqu          16       0.03324       0.00000       0.00000  
      17  aqu170                     aqu          17       0.05391       0.00000       0.00000  
      18  aqu180                     aqu          18       0.03413       0.00000       0.00000  
      19  aqu190                     aqu          19       0.03503       0.00000       0.00000  
      20  aqu200                     aqu          20       0.04583       0.00000       0.00000  
      21  aqu210                     aqu          21       0.03348       0.00000       0.00000  
      22  aqu220                     aqu          22       0.04374       0.00000       0.00000  
      23  aqu230                     aqu          23       0.06548       0.00000       0.00000  
      24  aqu240                     aqu          24       0.02756       0.00000       0.00000  
      25  aqu250                     aqu          25       0.02502       0.00000       0.00000  
      26  aqu260                     aqu          26       0.08428       0.00000       0.00000  
      27  aqu270                     aqu          27       0.08825       0.00000       0.00000  
      28  aqu_deep002                aqu          28       1.00000       0.00000       0.00000  
