plant.ini: written by SWAT+ editor v2.3.3 on 2024-01-30 23:01 for SWAT+ rev.60.5.7
pcom_name          plt_cnt  rot_yr_ini          plt_name     lc_status      lai_init       bm_init      phu_init      plnt_pop      yrs_init      rsd_init  
crgr_comm                1         1  
                                        crgr             n       0.00000       0.00000       0.00000       0.00000       0.00000   10000.00000  
frsd_comm                1         1  
                                        frsd             y       2.00000   50000.00000       0.00000       0.00000       1.00000   10000.00000  
past_comm                1         1  
                                        past             y       0.00000   20000.00000       0.00000       0.00000       1.00000   10000.00000  
tuhb_comm                1         1  
                                        tuhb             n       0.00000       0.00000       0.00000       0.00000       0.00000   10000.00000  
frst_comm                1         1  
                                        frst             y       2.00000   50000.00000       0.00000       0.00000       1.00000   10000.00000  
wetw_comm                1         1  
                                        wetw             y       2.00000   50000.00000       0.00000       0.00000       1.00000   10000.00000  
wewo_comm                1         1  
                                        wewo             y       2.00000   50000.00000       0.00000       0.00000       1.00000   10000.00000  
wehb_comm                1         1  
                                        wehb             y       2.00000   50000.00000       0.00000       0.00000       1.00000   10000.00000  
