sweep.ops: written by SWAT+ editor v2.3.3 on 2024-02-19 12:29 for SWAT+ rev.60.5.7
name                   swp_eff     frac_curb  description
high_eff               0.80000       0.90000  
