topography.hyd: written by SWAT+ editor v2.3.3 on 2024-02-19 12:29 for SWAT+ rev.60.5.7
name                       slp       slp_len       lat_len      dist_cha         depos  
topohru0001            0.00653     121.00000     121.00000     121.00000       0.00000  
topohru0002            0.01909      90.00000      90.00000     121.00000       0.00000  
topohru0003            0.01202      90.00000      90.00000     121.00000       0.00000  
topohru0004            0.00457     121.00000     121.00000     121.00000       0.00000  
topohru0005            0.01254      90.00000      90.00000     121.00000       0.00000  
topohru0006            0.00601     121.00000     121.00000     121.00000       0.00000  
topohru0007            0.01421      90.00000      90.00000     121.00000       0.00000  
topohru0008            0.01756      90.00000      90.00000     121.00000       0.00000  
topohru0009            0.00667     121.00000     121.00000     121.00000       0.00000  
topohru0010            0.05036      30.00000      30.00000     121.00000       0.00000  
topohru0011            0.02132      90.00000      90.00000     121.00000       0.00000  
topohru0012            0.02817      90.00000      90.00000     121.00000       0.00000  
topohru0013            0.02309      90.00000      90.00000     121.00000       0.00000  
topohru0014            0.07352      30.00000      30.00000     121.00000       0.00000  
topohru0015            0.18850      10.00000      10.00000     121.00000       0.00000  
topohru0016            0.05016      30.00000      30.00000     121.00000       0.00000  
topohru0017            0.13387      10.00000      10.00000     121.00000       0.00000  
topohru0018            0.03673      60.00000      60.00000     121.00000       0.00000  
topohru0019            0.03172      60.00000      60.00000     121.00000       0.00000  
topohru0020            0.01598      90.00000      90.00000     121.00000       0.00000  
topohru0021            0.00386     121.00000     121.00000     121.00000       0.00000  
topohru0022            0.00880     121.00000     121.00000     121.00000       0.00000  
topohru0023            0.00805     121.00000     121.00000     121.00000       0.00000  
topohru0024            0.02355      90.00000      90.00000     121.00000       0.00000  
topohru0025            0.04354      60.00000      60.00000     121.00000       0.00000  
topohru0026            0.08680      10.00000      10.00000     121.00000       0.00000  
topohru0027            0.16297      10.00000      10.00000     121.00000       0.00000  
topohru0028            0.11672      10.00000      10.00000     121.00000       0.00000  
topohru0029            0.09627      10.00000      10.00000     121.00000       0.00000  
topohru0030            0.16273      10.00000      10.00000     121.00000       0.00000  
topohru0031            0.12105      10.00000      10.00000     121.00000       0.00000  
topohru0032            0.03520      60.00000      60.00000     121.00000       0.00000  
topohru0033            0.02923      90.00000      90.00000     121.00000       0.00000  
topohru0034            0.00366     121.00000     121.00000     121.00000       0.00000  
topohru0035            0.02053      90.00000      90.00000     121.00000       0.00000  
topohru0036            0.06014      30.00000      30.00000     121.00000       0.00000  
topohru0037            0.02468      90.00000      90.00000     121.00000       0.00000  
topohru0038            0.15321      10.00000      10.00000     121.00000       0.00000  
topohru0039            0.11108      10.00000      10.00000     121.00000       0.00000  
topohru0040            0.02671      90.00000      90.00000     121.00000       0.00000  
topohru0041            0.03556      60.00000      60.00000     121.00000       0.00000  
topohru0042            0.03546      60.00000      60.00000     121.00000       0.00000  
topohru0043            0.00503     121.00000     121.00000     121.00000       0.00000  
topohru0044            0.00915     121.00000     121.00000     121.00000       0.00000  
topohru0045            0.05022      30.00000      30.00000     121.00000       0.00000  
topohru0046            0.07200      30.00000      30.00000     121.00000       0.00000  
topohru0047            0.11840      10.00000      10.00000     121.00000       0.00000  
topohru0048            0.14185      10.00000      10.00000     121.00000       0.00000  
topohru0049            0.14374      10.00000      10.00000     121.00000       0.00000  
topohru0050            0.01439      90.00000      90.00000     121.00000       0.00000  
topohru0051            0.02917      90.00000      90.00000     121.00000       0.00000  
topohru0052            0.01758      90.00000      90.00000     121.00000       0.00000  
topohru0053            0.10382      10.00000      10.00000     121.00000       0.00000  
topohru0054            0.00728     121.00000     121.00000     121.00000       0.00000  
topohru0055            0.00960     121.00000     121.00000     121.00000       0.00000  
topohru0056            0.00478     121.00000     121.00000     121.00000       0.00000  
topohru0057            0.00722     121.00000     121.00000     121.00000       0.00000  
topohru0058            0.00470     121.00000     121.00000     121.00000       0.00000  
topohru0059            0.02639      90.00000      90.00000     121.00000       0.00000  
topohru0060            0.00598     121.00000     121.00000     121.00000       0.00000  
topohru0061            0.00542     121.00000     121.00000     121.00000       0.00000  
topohru0062            0.11500      10.00000      10.00000     121.00000       0.00000  
topohru0063            0.15409      10.00000      10.00000     121.00000       0.00000  
topohru0064            0.13316      10.00000      10.00000     121.00000       0.00000  
topohru0065            0.09889      10.00000      10.00000     121.00000       0.00000  
topohru0066            0.00606     121.00000     121.00000     121.00000       0.00000  
topohru0067            0.08142      10.00000      10.00000     121.00000       0.00000  
topohru0068            0.04024      60.00000      60.00000     121.00000       0.00000  
topohru0069            0.00542     121.00000     121.00000     121.00000       0.00000  
topohru0070            0.03963      60.00000      60.00000     121.00000       0.00000  
topohru0071            0.00394     121.00000     121.00000     121.00000       0.00000  
topohru0072            0.00366     121.00000     121.00000     121.00000       0.00000  
topohru0073            0.07767      30.00000      30.00000     121.00000       0.00000  
topohru0074            0.03327      60.00000      60.00000     121.00000       0.00000  
topohru0075            0.03120      60.00000      60.00000     121.00000       0.00000  
topohru0076            0.20264      10.00000      10.00000     121.00000       0.00000  
topohru0077            0.00506     121.00000     121.00000     121.00000       0.00000  
topohru0078            0.05302      30.00000      30.00000     121.00000       0.00000  
topohru0079            0.00453     121.00000     121.00000     121.00000       0.00000  
topohru0080            0.15751      10.00000      10.00000     121.00000       0.00000  
topohru0081            0.07005      30.00000      30.00000     121.00000       0.00000  
topohru0082            0.00552     121.00000     121.00000     121.00000       0.00000  
topohru0083            0.03417      60.00000      60.00000     121.00000       0.00000  
topohru0084            0.04361      60.00000      60.00000     121.00000       0.00000  
topohru0085            0.22169      10.00000      10.00000     121.00000       0.00000  
topohru0086            0.08382      10.00000      10.00000     121.00000       0.00000  
topohru0087            0.03679      60.00000      60.00000     121.00000       0.00000  
topohru0088            0.03474      60.00000      60.00000     121.00000       0.00000  
topohru0089            0.09302      10.00000      10.00000     121.00000       0.00000  
topohru0090            0.19137      10.00000      10.00000     121.00000       0.00000  
topohru0091            0.05453      30.00000      30.00000     121.00000       0.00000  
topohru0092            0.03658      60.00000      60.00000     121.00000       0.00000  
topohru0093            0.11027      10.00000      10.00000     121.00000       0.00000  
topohru0094            0.00454     121.00000     121.00000     121.00000       0.00000  
topohru0095            0.01206      90.00000      90.00000     121.00000       0.00000  
topohru0096            0.02316      90.00000      90.00000     121.00000       0.00000  
topohru0097            0.01601      90.00000      90.00000     121.00000       0.00000  
topohru0098            0.00559     121.00000     121.00000     121.00000       0.00000  
topohru0099            0.00539     121.00000     121.00000     121.00000       0.00000  
topohru0100            0.00556     121.00000     121.00000     121.00000       0.00000  
topohru0101            0.06617      30.00000      30.00000     121.00000       0.00000  
topohru0102            0.15570      10.00000      10.00000     121.00000       0.00000  
topohru0103            0.16192      10.00000      10.00000     121.00000       0.00000  
topohru0104            0.10906      10.00000      10.00000     121.00000       0.00000  
topohru0105            0.04494      60.00000      60.00000     121.00000       0.00000  
topohru0106            0.07296      30.00000      30.00000     121.00000       0.00000  
topohru0107            0.03900      60.00000      60.00000     121.00000       0.00000  
topohru0108            0.18608      10.00000      10.00000     121.00000       0.00000  
topohru0109            0.07887      30.00000      30.00000     121.00000       0.00000  
topohru0110            0.18288      10.00000      10.00000     121.00000       0.00000  
topohru0111            0.18882      10.00000      10.00000     121.00000       0.00000  
topohru0112            0.16670      10.00000      10.00000     121.00000       0.00000  
topohru0113            0.14809      10.00000      10.00000     121.00000       0.00000  
topohru0114            0.11306      10.00000      10.00000     121.00000       0.00000  
topohru0115            0.02365      90.00000      90.00000     121.00000       0.00000  
topohru0116            0.09528      10.00000      10.00000     121.00000       0.00000  
topohru0117            0.02153      90.00000      90.00000     121.00000       0.00000  
topohru0118            0.04473      60.00000      60.00000     121.00000       0.00000  
topohru0119            0.01713      90.00000      90.00000     121.00000       0.00000  
topohru0120            0.16244      10.00000      10.00000     121.00000       0.00000  
topohru0121            0.02500      90.00000      90.00000     121.00000       0.00000  
topohru0122            0.01364      90.00000      90.00000     121.00000       0.00000  
topohru0123            0.03005      60.00000      60.00000     121.00000       0.00000  
topohru0124            0.03472      60.00000      60.00000     121.00000       0.00000  
topohru0125            0.01757      90.00000      90.00000     121.00000       0.00000  
topohru0126            0.06321      30.00000      30.00000     121.00000       0.00000  
topohru0127            0.01727      90.00000      90.00000     121.00000       0.00000  
topohru0128            0.03505      60.00000      60.00000     121.00000       0.00000  
topohru0129            0.03044      60.00000      60.00000     121.00000       0.00000  
topohru0130            0.04785      60.00000      60.00000     121.00000       0.00000  
topohru0131            0.04444      60.00000      60.00000     121.00000       0.00000  
topohru0132            0.01524      90.00000      90.00000     121.00000       0.00000  
topohru0133            0.12902      10.00000      10.00000     121.00000       0.00000  
topohru0134            0.01876      90.00000      90.00000     121.00000       0.00000  
topohru0135            0.01689      90.00000      90.00000     121.00000       0.00000  
topohru0136            0.04495      60.00000      60.00000     121.00000       0.00000  
topohru0137            0.01830      90.00000      90.00000     121.00000       0.00000  
topohru0138            0.03451      60.00000      60.00000     121.00000       0.00000  
topohru0139            0.02774      90.00000      90.00000     121.00000       0.00000  
topohru0140            0.01667      90.00000      90.00000     121.00000       0.00000  
topohru0141            0.04208      60.00000      60.00000     121.00000       0.00000  
topohru0142            0.01895      90.00000      90.00000     121.00000       0.00000  
topohru0143            0.01950      90.00000      90.00000     121.00000       0.00000  
topohru0144            0.02567      90.00000      90.00000     121.00000       0.00000  
topohru0145            0.02719      90.00000      90.00000     121.00000       0.00000  
topohru0146            0.17578      10.00000      10.00000     121.00000       0.00000  
topohru0147            0.09998      10.00000      10.00000     121.00000       0.00000  
topohru0148            0.02824      90.00000      90.00000     121.00000       0.00000  
topohru0149            0.02907      90.00000      90.00000     121.00000       0.00000  
topohru0150            0.03276      60.00000      60.00000     121.00000       0.00000  
topohru0151            0.01570      90.00000      90.00000     121.00000       0.00000  
topohru0152            0.04880      60.00000      60.00000     121.00000       0.00000  
topohru0153            0.01987      90.00000      90.00000     121.00000       0.00000  
topohru0154            0.04002      60.00000      60.00000     121.00000       0.00000  
topohru0155            0.04940      60.00000      60.00000     121.00000       0.00000  
topohru0156            0.02091      90.00000      90.00000     121.00000       0.00000  
topohru0157            0.02848      90.00000      90.00000     121.00000       0.00000  
topohru0158            0.03174      60.00000      60.00000     121.00000       0.00000  
topohru0159            0.03373      60.00000      60.00000     121.00000       0.00000  
topohru0160            0.03787      60.00000      60.00000     121.00000       0.00000  
topohru0161            0.03208      60.00000      60.00000     121.00000       0.00000  
topohru0162            0.04449      60.00000      60.00000     121.00000       0.00000  
topohru0163            0.03169      60.00000      60.00000     121.00000       0.00000  
topohru0164            0.01845      90.00000      90.00000     121.00000       0.00000  
topohru0165            0.01570      90.00000      90.00000     121.00000       0.00000  
topohru0166            0.04287      60.00000      60.00000     121.00000       0.00000  
topohru0167            0.02806      90.00000      90.00000     121.00000       0.00000  
topohru0168            0.02231      90.00000      90.00000     121.00000       0.00000  
topohru0169            0.01222      90.00000      90.00000     121.00000       0.00000  
topohru0170            0.02704      90.00000      90.00000     121.00000       0.00000  
topohru0171            0.01824      90.00000      90.00000     121.00000       0.00000  
topohru0172            0.06793      30.00000      30.00000     121.00000       0.00000  
topohru0173            0.02737      90.00000      90.00000     121.00000       0.00000  
topohru0174            0.04021      60.00000      60.00000     121.00000       0.00000  
topohru0175            0.03351      60.00000      60.00000     121.00000       0.00000  
topohru0176            0.02924      90.00000      90.00000     121.00000       0.00000  
topohru0177            0.03613      60.00000      60.00000     121.00000       0.00000  
topohru0178            0.02922      90.00000      90.00000     121.00000       0.00000  
topohru0179            0.01783      90.00000      90.00000     121.00000       0.00000  
topohru0180            0.01317      90.00000      90.00000     121.00000       0.00000  
topohru0181            0.03442      60.00000      60.00000     121.00000       0.00000  
topohru0182            0.05414      30.00000      30.00000     121.00000       0.00000  
topohru0183            0.02343      90.00000      90.00000     121.00000       0.00000  
topohru0184            0.02635      90.00000      90.00000     121.00000       0.00000  
topohru0185            0.04207      60.00000      60.00000     121.00000       0.00000  
topohru0186            0.02609      90.00000      90.00000     121.00000       0.00000  
topohru0187            0.03655      60.00000      60.00000     121.00000       0.00000  
topohru0188            0.04198      60.00000      60.00000     121.00000       0.00000  
topohru0189            0.02668      90.00000      90.00000     121.00000       0.00000  
topohru0190            0.02952      90.00000      90.00000     121.00000       0.00000  
topohru0191            0.01814      90.00000      90.00000     121.00000       0.00000  
topohru0192            0.03087      60.00000      60.00000     121.00000       0.00000  
topohru0193            0.05313      30.00000      30.00000     121.00000       0.00000  
topohru0194            0.02183      90.00000      90.00000     121.00000       0.00000  
topohru0195            0.03498      60.00000      60.00000     121.00000       0.00000  
topohru0196            0.02119      90.00000      90.00000     121.00000       0.00000  
topohru0197            0.03396      60.00000      60.00000     121.00000       0.00000  
topohru0198            0.03567      60.00000      60.00000     121.00000       0.00000  
topohru0199            0.04467      60.00000      60.00000     121.00000       0.00000  
topohru0200            0.05808      30.00000      30.00000     121.00000       0.00000  
topohru0201            0.04237      60.00000      60.00000     121.00000       0.00000  
topohru0202            0.02165      90.00000      90.00000     121.00000       0.00000  
topohru0203            0.02720      90.00000      90.00000     121.00000       0.00000  
topohru0204            0.01160      90.00000      90.00000     121.00000       0.00000  
topohru0205            0.01163      90.00000      90.00000     121.00000       0.00000  
topohru0206            0.01908      90.00000      90.00000     121.00000       0.00000  
topohru0207            0.06367      30.00000      30.00000     121.00000       0.00000  
topohru0208            0.06847      30.00000      30.00000     121.00000       0.00000  
topohru0209            0.17762      10.00000      10.00000     121.00000       0.00000  
topohru0210            0.11828      10.00000      10.00000     121.00000       0.00000  
topohru0211            0.14616      10.00000      10.00000     121.00000       0.00000  
topohru0212            0.08365      10.00000      10.00000     121.00000       0.00000  
topohru0213            0.07872      30.00000      30.00000     121.00000       0.00000  
topohru0214            0.02447      90.00000      90.00000     121.00000       0.00000  
topohru0215            0.01658      90.00000      90.00000     121.00000       0.00000  
topohru0216            0.03239      60.00000      60.00000     121.00000       0.00000  
topohru0217            0.01467      90.00000      90.00000     121.00000       0.00000  
topohru0218            0.02450      90.00000      90.00000     121.00000       0.00000  
topohru0219            0.04426      60.00000      60.00000     121.00000       0.00000  
topohru0220            0.01854      90.00000      90.00000     121.00000       0.00000  
topohru0221            0.03297      60.00000      60.00000     121.00000       0.00000  
topohru0222            0.01502      90.00000      90.00000     121.00000       0.00000  
topohru0223            0.01136      90.00000      90.00000     121.00000       0.00000  
topohru0224            0.02269      90.00000      90.00000     121.00000       0.00000  
topohru0225            0.01545      90.00000      90.00000     121.00000       0.00000  
topohru0226            0.03101      60.00000      60.00000     121.00000       0.00000  
topohru0227            0.08873      10.00000      10.00000     121.00000       0.00000  
topohru0228            0.20936      10.00000      10.00000     121.00000       0.00000  
topohru0229            0.02128      90.00000      90.00000     121.00000       0.00000  
topohru0230            0.02255      90.00000      90.00000     121.00000       0.00000  
topohru0231            0.02514      90.00000      90.00000     121.00000       0.00000  
topohru0232            0.07971      30.00000      30.00000     121.00000       0.00000  
topohru0233            0.20117      10.00000      10.00000     121.00000       0.00000  
topohru0234            0.17481      10.00000      10.00000     121.00000       0.00000  
topohru0235            0.23201      10.00000      10.00000     121.00000       0.00000  
topohru0236            0.17469      10.00000      10.00000     121.00000       0.00000  
topohru0237            0.11178      10.00000      10.00000     121.00000       0.00000  
topohru0238            0.12498      10.00000      10.00000     121.00000       0.00000  
topohru0239            0.11747      10.00000      10.00000     121.00000       0.00000  
topohru0240            0.03763      60.00000      60.00000     121.00000       0.00000  
topohru0241            0.05915      30.00000      30.00000     121.00000       0.00000  
topohru0242            0.01790      90.00000      90.00000     121.00000       0.00000  
topohru0243            0.08579      10.00000      10.00000     121.00000       0.00000  
topohru0244            0.03648      60.00000      60.00000     121.00000       0.00000  
topohru0245            0.01021      90.00000      90.00000     121.00000       0.00000  
topohru0246            0.03974      60.00000      60.00000     121.00000       0.00000  
topohru0247            0.01077      90.00000      90.00000     121.00000       0.00000  
topohru0248            0.03248      60.00000      60.00000     121.00000       0.00000  
topohru0249            0.01579      90.00000      90.00000     121.00000       0.00000  
topohru0250            0.01046      90.00000      90.00000     121.00000       0.00000  
topohru0251            0.05991      30.00000      30.00000     121.00000       0.00000  
topohru0252            0.07434      30.00000      30.00000     121.00000       0.00000  
topohru0253            0.16815      10.00000      10.00000     121.00000       0.00000  
topohru0254            0.08488      10.00000      10.00000     121.00000       0.00000  
topohru0255            0.04522      60.00000      60.00000     121.00000       0.00000  
topohru0256            0.11200      10.00000      10.00000     121.00000       0.00000  
topohru0257            0.04466      60.00000      60.00000     121.00000       0.00000  
topohru0258            0.02044      90.00000      90.00000     121.00000       0.00000  
topohru0259            0.01661      90.00000      90.00000     121.00000       0.00000  
topohru0260            0.05086      30.00000      30.00000     121.00000       0.00000  
topohru0261            0.01783      90.00000      90.00000     121.00000       0.00000  
topohru0262            0.01612      90.00000      90.00000     121.00000       0.00000  
topohru0263            0.02063      90.00000      90.00000     121.00000       0.00000  
topohru0264            0.01378      90.00000      90.00000     121.00000       0.00000  
topohru0265            0.02132      90.00000      90.00000     121.00000       0.00000  
topohru0266            0.06950      30.00000      30.00000     121.00000       0.00000  
topohru0267            0.09743      10.00000      10.00000     121.00000       0.00000  
topohru0268            0.00814     121.00000     121.00000     121.00000       0.00000  
topohru0269            0.27251      10.00000      10.00000     121.00000       0.00000  
topohru0270            0.18644      10.00000      10.00000     121.00000       0.00000  
topohru0271            0.12920      10.00000      10.00000     121.00000       0.00000  
topohru0272            0.02639      90.00000      90.00000     121.00000       0.00000  
topohru0273            0.12484      10.00000      10.00000     121.00000       0.00000  
topohru0274            0.01262      90.00000      90.00000     121.00000       0.00000  
topohru0275            0.15524      10.00000      10.00000     121.00000       0.00000  
topohru0276            0.29698      10.00000      10.00000     121.00000       0.00000  
topohru0277            0.04048      60.00000      60.00000     121.00000       0.00000  
topohru0278            0.03884      60.00000      60.00000     121.00000       0.00000  
topohru0279            0.02634      90.00000      90.00000     121.00000       0.00000  
topohru0280            0.01581      90.00000      90.00000     121.00000       0.00000  
topohru0281            0.12210      10.00000      10.00000     121.00000       0.00000  
topohru0282            0.02911      90.00000      90.00000     121.00000       0.00000  
topohru0283            0.08419      10.00000      10.00000     121.00000       0.00000  
topohru0284            0.22240      10.00000      10.00000     121.00000       0.00000  
topohru0285            0.10981      10.00000      10.00000     121.00000       0.00000  
topohru0286            0.11759      10.00000      10.00000     121.00000       0.00000  
topohru0287            0.09849      10.00000      10.00000     121.00000       0.00000  
topohru0288            0.16535      10.00000      10.00000     121.00000       0.00000  
topohru0289            0.00971     121.00000     121.00000     121.00000       0.00000  
topohru0290            0.07444      30.00000      30.00000     121.00000       0.00000  
topohru0291            0.05022      30.00000      30.00000     121.00000       0.00000  
topohru0292            0.04380      60.00000      60.00000     121.00000       0.00000  
topohru0293            0.02870      90.00000      90.00000     121.00000       0.00000  
topohru0294            0.00838     121.00000     121.00000     121.00000       0.00000  
topohru0295            0.10327      10.00000      10.00000     121.00000       0.00000  
topohru0296            0.03240      60.00000      60.00000     121.00000       0.00000  
topohru0297            0.03335      60.00000      60.00000     121.00000       0.00000  
topohru0298            0.02184      90.00000      90.00000     121.00000       0.00000  
topohru0299            0.01110      90.00000      90.00000     121.00000       0.00000  
topohru0300            0.07518      30.00000      30.00000     121.00000       0.00000  
topohru0301            0.04164      60.00000      60.00000     121.00000       0.00000  
topohru0302            0.14621      10.00000      10.00000     121.00000       0.00000  
topohru0303            0.09545      10.00000      10.00000     121.00000       0.00000  
topohru0304            0.05079      30.00000      30.00000     121.00000       0.00000  
topohru0305            0.04083      60.00000      60.00000     121.00000       0.00000  
topohru0306            0.01272      90.00000      90.00000     121.00000       0.00000  
topohru0307            0.07260      30.00000      30.00000     121.00000       0.00000  
topohru0308            0.09554      10.00000      10.00000     121.00000       0.00000  
topohru0309            0.02141      90.00000      90.00000     121.00000       0.00000  
topohru0310            0.07402      30.00000      30.00000     121.00000       0.00000  
topohru0311            0.03484      60.00000      60.00000     121.00000       0.00000  
topohru0312            0.01684      90.00000      90.00000     121.00000       0.00000  
topohru0313            0.03718      60.00000      60.00000     121.00000       0.00000  
topohru0314            0.03206      60.00000      60.00000     121.00000       0.00000  
topohru0315            0.08785      10.00000      10.00000     121.00000       0.00000  
topohru0316            0.04645      60.00000      60.00000     121.00000       0.00000  
topohru0317            0.01595      90.00000      90.00000     121.00000       0.00000  
topohru0318            0.05490      30.00000      30.00000     121.00000       0.00000  
topohru0319            0.01852      90.00000      90.00000     121.00000       0.00000  
topohru0320            0.01467      90.00000      90.00000     121.00000       0.00000  
topohru0321            0.04010      60.00000      60.00000     121.00000       0.00000  
topohru0322            0.03241      60.00000      60.00000     121.00000       0.00000  
topohru0323            0.04191      60.00000      60.00000     121.00000       0.00000  
topohru0324            0.00728     121.00000     121.00000     121.00000       0.00000  
topohru0325            0.01093      90.00000      90.00000     121.00000       0.00000  
topohru0326            0.01437      90.00000      90.00000     121.00000       0.00000  
topohru0327            0.03302      60.00000      60.00000     121.00000       0.00000  
topohru0328            0.00937     121.00000     121.00000     121.00000       0.00000  
topohru0329            0.00791     121.00000     121.00000     121.00000       0.00000  
topohru0330            0.00935     121.00000     121.00000     121.00000       0.00000  
topohru0331            0.01197      90.00000      90.00000     121.00000       0.00000  
topohru0332            0.01043      90.00000      90.00000     121.00000       0.00000  
topohru0333            0.00865     121.00000     121.00000     121.00000       0.00000  
topohru0334            0.00794     121.00000     121.00000     121.00000       0.00000  
topohru0335            0.00934     121.00000     121.00000     121.00000       0.00000  