aquifer.aqu: written by SWAT+ editor v2.3.3 on 2024-02-20 10:44 for SWAT+ rev.60.5.7
     id           name        init               gw_flo              dep_bot               dep_wt  no3_n  sol_p  carbon              flo_dist                bf_max              alpha_bf                  revap               rchg_dp            spec_yld  hl_no3n               flo_min            revap_min
    1.0         aqu010    initaqu1              1.38492             6.917558             6.928123    0.0    0.0     0.5            138.530788               1.38493              0.691177               0.144666              0.692661            0.346311     30.0             34.564362            34.415932
    2.0         aqu020    initaqu1              1.38492             6.917558             6.928123    0.0    0.0     0.5            138.530788               1.38493              0.691177               0.144666              0.692661            0.346311     30.0             34.564362            34.415932
    3.0         aqu030    initaqu1              1.38492             6.917558             6.928123    0.0    0.0     0.5            138.530788               1.38493              0.691177               0.144666              0.692661            0.346311     30.0             34.564362            34.415932
    4.0         aqu040    initaqu1              1.38492             6.917558             6.928123    0.0    0.0     0.5            138.530788               1.38493              0.691177               0.144666              0.692661            0.346311     30.0             34.564362            34.415932
    5.0         aqu050    initaqu1              1.38492             6.917558             6.928123    0.0    0.0     0.5            138.530788               1.38493              0.691177               0.144666              0.692661            0.346311     30.0             34.564362            34.415932
    6.0         aqu060    initaqu1              1.38492             6.917558             6.928123    0.0    0.0     0.5            138.530788               1.38493              0.691177               0.144666              0.692661            0.346311     30.0             34.564362            34.415932
    7.0         aqu070    initaqu1              1.38492             6.917558             6.928123    0.0    0.0     0.5            138.530788               1.38493              0.691177               0.144666              0.692661            0.346311     30.0             34.564362            34.415932
    8.0         aqu080    initaqu1              1.38492             6.917558             6.928123    0.0    0.0     0.5            138.530788               1.38493              0.691177               0.144666              0.692661            0.346311     30.0             34.564362            34.415932
    9.0         aqu090    initaqu1              1.38492             6.917558             6.928123    0.0    0.0     0.5            138.530788               1.38493              0.691177               0.144666              0.692661            0.346311     30.0             34.564362            34.415932
   10.0         aqu100    initaqu1              1.38492             6.917558             6.928123    0.0    0.0     0.5            138.530788               1.38493              0.691177               0.144666              0.692661            0.346311     30.0             34.564362            34.415932
   11.0         aqu110    initaqu1              1.38492             6.917558             6.928123    0.0    0.0     0.5            138.530788               1.38493              0.691177               0.144666              0.692661            0.346311     30.0             34.564362            34.415932
   12.0         aqu120    initaqu1              1.38492             6.917558             6.928123    0.0    0.0     0.5            138.530788               1.38493              0.691177               0.144666              0.692661            0.346311     30.0             34.564362            34.415932
   13.0         aqu130    initaqu1              1.38492             6.917558             6.928123    0.0    0.0     0.5            138.530788               1.38493              0.691177               0.144666              0.692661            0.346311     30.0             34.564362            34.415932
   14.0         aqu140    initaqu1              1.38492             6.917558             6.928123    0.0    0.0     0.5            138.530788               1.38493              0.691177               0.144666              0.692661            0.346311     30.0             34.564362            34.415932
   15.0         aqu150    initaqu1              1.38492             6.917558             6.928123    0.0    0.0     0.5            138.530788               1.38493              0.691177               0.144666              0.692661            0.346311     30.0             34.564362            34.415932
   16.0         aqu160    initaqu1              1.38492             6.917558             6.928123    0.0    0.0     0.5            138.530788               1.38493              0.691177               0.144666              0.692661            0.346311     30.0             34.564362            34.415932
   17.0         aqu170    initaqu1              1.38492             6.917558             6.928123    0.0    0.0     0.5            138.530788               1.38493              0.691177               0.144666              0.692661            0.346311     30.0             34.564362            34.415932
   18.0         aqu180    initaqu1              1.38492             6.917558             6.928123    0.0    0.0     0.5            138.530788               1.38493              0.691177               0.144666              0.692661            0.346311     30.0             34.564362            34.415932
   19.0         aqu190    initaqu1              1.38492             6.917558             6.928123    0.0    0.0     0.5            138.530788               1.38493              0.691177               0.144666              0.692661            0.346311     30.0             34.564362            34.415932
   20.0         aqu200    initaqu1              1.38492             6.917558             6.928123    0.0    0.0     0.5            138.530788               1.38493              0.691177               0.144666              0.692661            0.346311     30.0             34.564362            34.415932
   21.0         aqu210    initaqu1              1.38492             6.917558             6.928123    0.0    0.0     0.5            138.530788               1.38493              0.691177               0.144666              0.692661            0.346311     30.0             34.564362            34.415932
   22.0         aqu220    initaqu1              1.38492             6.917558             6.928123    0.0    0.0     0.5            138.530788               1.38493              0.691177               0.144666              0.692661            0.346311     30.0             34.564362            34.415932
   23.0         aqu230    initaqu1              1.38492             6.917558             6.928123    0.0    0.0     0.5            138.530788               1.38493              0.691177               0.144666              0.692661            0.346311     30.0             34.564362            34.415932
   24.0         aqu240    initaqu1              1.38492             6.917558             6.928123    0.0    0.0     0.5            138.530788               1.38493              0.691177               0.144666              0.692661            0.346311     30.0             34.564362            34.415932
   25.0         aqu250    initaqu1              1.38492             6.917558             6.928123    0.0    0.0     0.5            138.530788               1.38493              0.691177               0.144666              0.692661            0.346311     30.0             34.564362            34.415932
   26.0         aqu260    initaqu1              1.38492             6.917558             6.928123    0.0    0.0     0.5            138.530788               1.38493              0.691177               0.144666              0.692661            0.346311     30.0             34.564362            34.415932
   27.0         aqu270    initaqu1              1.38492             6.917558             6.928123    0.0    0.0     0.5            138.530788               1.38493              0.691177               0.144666              0.692661            0.346311     30.0             34.564362            34.415932
   28.0    aqu_deep002    initaqu1              1.38492             6.917558             6.928123    0.0    0.0     0.5            138.530788               1.38493              0.691177               0.144666              0.692661            0.346311     30.0             34.564362            34.415932