hru.con: written by SWAT+ editor v2.3.3 on 2024-02-20 10:44 for SWAT+ rev.60.5.7
      id  name                gis_id          area           lat           lon          elev       hru               wst       cst      ovfl      rule   out_tot  
       1  hru0001                  1      86.35542      41.30741     -82.65074     205.22185         1     s41300n82700w         0         0         0         0  
       2  hru0002                  2      60.58462      41.30245     -82.64677     205.43378         2     s41300n82600w         0         0         0         0  
       3  hru0003                  3      90.97522      41.30237     -82.64188     203.34957         3     s41300n82600w         0         0         0         0  
       4  hru0004                  4      13.08199      41.30660     -82.64724     205.14481         4     s41300n82600w         0         0         0         0  
       5  hru0005                  5     166.00007      41.30471     -82.64917     206.16068         5     s41300n82600w         0         0         0         0  
       6  hru0006                  6      24.14449      41.30445     -82.64210     204.26647         6     s41300n82600w         0         0         0         0  
       7  hru0007                  7      34.48319      41.29406     -82.62523     181.38792         7     s41300n82600w         0         0         0         0  
       8  hru0008                  8      28.66600      41.28904     -82.62700     182.79800         8     s41300n82600w         0         0         0         0  
       9  hru0009                  9      12.00969      41.28194     -82.62978     205.90997         9     s41300n82600w         0         0         0         0  
      10  hru0010                 10      23.41609      41.29588     -82.64224     203.95897        10     s41300n82600w         0         0         0         0  
      11  hru0011                 11      10.06911      41.30545     -82.64172     204.57063        11     s41300n82600w         0         0         0         0  
      12  hru0012                 12      13.93097      41.29629     -82.63836     198.81271        12     s41300n82600w         0         0         0         0  
      13  hru0013                 13       6.25434      41.30506     -82.64073     203.87048        13     s41300n82600w         0         0         0         0  
      14  hru0014                 14      12.78183      41.29837     -82.63400     196.19749        14     s41300n82600w         0         0         0         0  
      15  hru0015                 15      43.24347      41.29559     -82.62545     193.21738        15     s41300n82600w         0         0         0         0  
      16  hru0016                 16      43.34708      41.29227     -82.63130     183.24359        16     s41300n82600w         0         0         0         0  
      17  hru0017                 17      18.07541      41.29080     -82.63712     193.27514        17     s41300n82600w         0         0         0         0  
      18  hru0018                 18       5.08636      41.29080     -82.63295     184.43519        18     s41300n82600w         0         0         0         0  
      19  hru0019                 19       4.77171      41.30783     -82.61192     200.29259        19     s41300n82600w         0         0         0         0  
      20  hru0020                 20       7.62590      41.30725     -82.61727     201.51796        20     s41300n82600w         0         0         0         0  
      21  hru0021                 21      43.66999      41.30443     -82.62498     202.23189        21     s41300n82600w         0         0         0         0  
      22  hru0022                 22       9.41087      41.29460     -82.61198     202.87042        22     s41300n82600w         0         0         0         0  
      23  hru0023                 23      18.61851      41.30323     -82.62236     201.79497        23     s41300n82600w         0         0         0         0  
      24  hru0024                 24      21.74663      41.30282     -82.61780     200.78423        24     s41300n82600w         0         0         0         0  
      25  hru0025                 25       3.71133      41.30379     -82.62020     200.76667        25     s41300n82600w         0         0         0         0  
      26  hru0026                 26       3.30925      41.30752     -82.61079     198.61558        26     s41300n82600w         0         0         0         0  
      27  hru0027                 27      21.92699      41.30348     -82.61278     193.06821        27     s41300n82600w         0         0         0         0  
      28  hru0028                 28       2.13167      41.30510     -82.60755     184.66532        28     s41300n82600w         0         0         0         0  
      29  hru0029                 29      11.33740      41.30223     -82.61422     197.92873        29     s41300n82600w         0         0         0         0  
      30  hru0030                 30       2.17465      41.30473     -82.61691     198.72332        30     s41300n82600w         0         0         0         0  
      31  hru0031                 31      11.02796      41.30006     -82.61283     182.01247        31     s41300n82600w         0         0         0         0  
      32  hru0032                 32       6.14575      41.29936     -82.61316     179.36643        32     s41300n82600w         0         0         0         0  
      33  hru0033                 33       5.59853      41.29747     -82.60758     201.88520        33     s41300n82600w         0         0         0         0  
      34  hru0034                 34       0.88798      41.30723     -82.62102     201.61905        34     s41300n82600w         0         0         0         0  
      35  hru0035                 35       2.70624      41.29256     -82.60910     203.27813        35     s41300n82600w         0         0         0         0  
      36  hru0036                 36       1.96202      41.30391     -82.60761     182.86207        36     s41300n82600w         0         0         0         0  
      37  hru0037                 37       0.65119      41.30459     -82.63158     205.03896        37     s41300n82600w         0         0         0         0  
      38  hru0038                 38       4.32152      41.29964     -82.60962     184.32681        38     s41300n82600w         0         0         0         0  
      39  hru0039                 39       2.23265      41.30113     -82.61736     199.29924        39     s41300n82600w         0         0         0         0  
      40  hru0040                 40       1.81825      41.29352     -82.60410     202.31163        40     s41300n82600w         0         0         0         0  
      41  hru0041                 41       3.21366      41.29111     -82.60278     201.80263        41     s41300n82600w         0         0         0         0  
      42  hru0042                 42       1.11632      41.29142     -82.60401     201.00000        42     s41300n82600w         0         0         0         0  
      43  hru0043                 43       3.27186      41.30723     -82.62158     201.78553        43     s41300n82600w         0         0         0         0  
      44  hru0044                 44       2.30806      41.30337     -82.61978     201.40659        44     s41300n82600w         0         0         0         0  
      45  hru0045                 45      16.29167      41.29704     -82.60747     201.12247        45     s41300n82600w         0         0         0         0  
      46  hru0046                 46       2.43487      41.30457     -82.61357     199.13194        46     s41300n82600w         0         0         0         0  
      47  hru0047                 47       2.73078      41.29971     -82.60895     192.84520        47     s41300n82600w         0         0         0         0  
      48  hru0048                 48       2.21506      41.30126     -82.60967     183.01527        48     s41300n82600w         0         0         0         0  
      49  hru0049                 49       1.02298      41.30125     -82.61023     178.75207        49     s41300n82600w         0         0         0         0  
      50  hru0050                 50       4.99656      41.28866     -82.60221     203.01861        50     s41300n82600w         0         0         0         0  
      51  hru0051                 51       6.14815      41.29579     -82.60887     202.49315        51     s41300n82600w         0         0         0         0  
      52  hru0052                 52       2.23186      41.30183     -82.61413     200.52453        52     s41300n82600w         0         0         0         0  
      53  hru0053                 53       6.38397      41.29826     -82.60850     194.66227        53     s41300n82600w         0         0         0         0  
      54  hru0054                 54      23.03006      41.28854     -82.69067     212.39601        54     s41300n82700w         0         0         0         0  
      55  hru0055                 55      13.82324      41.28816     -82.68062     209.87068        55     s41300n82700w         0         0         0         0  
      56  hru0056                 56     207.76519      41.27775     -82.70841     217.15094        56     s41300n82700w         0         0         0         0  
      57  hru0057                 57      97.19659      41.28356     -82.70620     215.80546        57     s41300n82700w         0         0         0         0  
      58  hru0058                 58      80.84819      41.28193     -82.69554     214.24557        58     s41300n82700w         0         0         0         0  
      59  hru0059                 59      14.01415      41.27675     -82.71839     221.91022        59     s41300n82700w         0         0         0         0  
      60  hru0060                 60     133.56396      41.27021     -82.72813     222.97518        60     s41300n82700w         0         0         0         0  
      61  hru0061                 61      26.11925      41.27042     -82.71757     221.59668        61     s41300n82700w         0         0         0         0  
      62  hru0062                 62       1.46411      41.27737     -82.65183     191.64571        62     s41300n82700w         0         0         0         0  
      63  hru0063                 63      10.86788      41.27487     -82.64875     199.17167        63     s41300n82600w         0         0         0         0  
      64  hru0064                 64      31.70844      41.26889     -82.65289     204.68549        64     s41300n82700w         0         0         0         0  
      65  hru0065                 65       8.41654      41.27278     -82.64938     207.98807        65     s41300n82600w         0         0         0         0  
      66  hru0066                 66       8.97709      41.25348     -82.67014     214.51072        66     s41300n82700w         0         0         0         0  
      67  hru0067                 67       6.64288      41.26177     -82.65878     210.12846        67     s41300n82700w         0         0         0         0  
      68  hru0068                 68      91.43539      41.26553     -82.65750     210.56225        68     s41300n82700w         0         0         0         0  
      69  hru0069                 69     530.69083      41.25310     -82.66635     214.27940        69     s41300n82700w         0         0         0         0  
      70  hru0070                 70      95.52469      41.25546     -82.66095     212.15958        70     s41300n82700w         0         0         0         0  
      71  hru0071                 71      33.93014      41.24413     -82.67881     216.45076        71     s41200n82700w         0         0         0         0  
      72  hru0072                 72       0.92665      41.28767     -82.67444     190.02609        72     s41300n82700w         0         0         0         0  
      73  hru0073                 73       1.61157      41.28644     -82.67399     192.76000        73     s41300n82700w         0         0         0         0  
      74  hru0074                 74       8.72667      41.28367     -82.67440     192.40166        74     s41300n82700w         0         0         0         0  
      75  hru0075                 75       0.83802      41.28423     -82.67204     191.42308        75     s41300n82700w         0         0         0         0  
      76  hru0076                 76       0.97500      41.28224     -82.67789     199.79339        76     s41300n82700w         0         0         0         0  
      77  hru0077                 77      69.06256      41.28334     -82.68292     210.83230        77     s41300n82700w         0         0         0         0  
      78  hru0078                 78       2.30626      41.28548     -82.67441     192.81159        78     s41300n82700w         0         0         0         0  
      79  hru0079                 79      23.03757      41.28253     -82.68830     212.15379        79     s41300n82700w         0         0         0         0  
      80  hru0080                 80       3.31734      41.28437     -82.67600     207.09572        80     s41300n82700w         0         0         0         0  
      81  hru0081                 81      24.88093      41.29071     -82.66324     204.14125        81     s41300n82700w         0         0         0         0  
      82  hru0082                 82     418.43587      41.27332     -82.66598     211.11442        82     s41300n82700w         0         0         0         0  
      83  hru0083                 83      35.86247      41.28264     -82.65610     208.26514        83     s41300n82700w         0         0         0         0  
      84  hru0084                 84      13.60509      41.28941     -82.65500     186.46144        84     s41300n82700w         0         0         0         0  
      85  hru0085                 85      16.37729      41.28925     -82.65810     198.04948        85     s41300n82700w         0         0         0         0  
      86  hru0086                 86       3.38635      41.28904     -82.66849     191.11839        86     s41300n82700w         0         0         0         0  
      87  hru0087                 87       4.59758      41.28905     -82.65609     186.41744        87     s41300n82700w         0         0         0         0  
      88  hru0088                 88      14.73103      41.28869     -82.67027     189.92472        88     s41300n82700w         0         0         0         0  
      89  hru0089                 89       3.65077      41.28926     -82.65319     188.28037        89     s41300n82700w         0         0         0         0  
      90  hru0090                 90       7.89863      41.28581     -82.65601     201.07451        90     s41300n82700w         0         0         0         0  
      91  hru0091                 91       4.80230      41.28091     -82.65598     208.37478        91     s41300n82700w         0         0         0         0  
      92  hru0092                 92      10.33816      41.28417     -82.66365     190.15017        92     s41300n82700w         0         0         0         0  
      93  hru0093                 93       8.00099      41.28236     -82.65429     205.99360        93     s41300n82700w         0         0         0         0  
      94  hru0094                 94       4.51228      41.27893     -82.66636     210.30246        94     s41300n82700w         0         0         0         0  
      95  hru0095                 95      31.81267      41.29733     -82.65985     207.08354        95     s41300n82700w         0         0         0         0  
      96  hru0096                 96      12.58427      41.29466     -82.64924     206.45105        96     s41300n82600w         0         0         0         0  
      97  hru0097                 97       4.53210      41.29894     -82.65828     206.84854        97     s41300n82700w         0         0         0         0  
      98  hru0098                 98      15.92834      41.29277     -82.67626     209.55414        98     s41300n82700w         0         0         0         0  
      99  hru0099                 99      56.70840      41.29466     -82.66837     207.95174        99     s41300n82700w         0         0         0         0  
     100  hru0100                100      17.15156      41.29405     -82.65683     206.53155       100     s41300n82700w         0         0         0         0  
     101  hru0101                101       5.14811      41.28463     -82.64003     204.60684       101     s41300n82600w         0         0         0         0  
     102  hru0102                102      33.20720      41.29303     -82.65082     196.99054       102     s41300n82700w         0         0         0         0  
     103  hru0103                103       2.50538      41.28929     -82.64797     191.48084       103     s41300n82600w         0         0         0         0  
     104  hru0104                104      18.36697      41.29599     -82.65510     195.39876       104     s41300n82700w         0         0         0         0  
     105  hru0105                105      10.46673      41.29148     -82.64887     206.42118       105     s41300n82600w         0         0         0         0  
     106  hru0106                106      11.95948      41.28819     -82.64219     185.11533       106     s41300n82600w         0         0         0         0  
     107  hru0107                107      10.30087      41.28617     -82.64297     184.38475       107     s41300n82600w         0         0         0         0  
     108  hru0108                108       2.30460      41.28506     -82.64026     200.59470       108     s41300n82600w         0         0         0         0  
     109  hru0109                109       4.56312      41.29174     -82.61526     183.18295       109     s41300n82600w         0         0         0         0  
     110  hru0110                110      10.47168      41.28897     -82.61740     192.14319       110     s41300n82600w         0         0         0         0  
     111  hru0111                111       3.67157      41.28997     -82.61896     198.44812       111     s41300n82600w         0         0         0         0  
     112  hru0112                112      49.11639      41.27147     -82.62156     201.32145       112     s41300n82600w         0         0         0         0  
     113  hru0113                113       9.54771      41.27948     -82.62003     192.43209       113     s41300n82600w         0         0         0         0  
     114  hru0114                114      15.48868      41.27568     -82.62051     204.66981       114     s41300n82600w         0         0         0         0  
     115  hru0115                115      44.54516      41.25744     -82.61372     212.52475       115     s41300n82600w         0         0         0         0  
     116  hru0116                116       6.24897      41.26272     -82.61639     207.66926       116     s41300n82600w         0         0         0         0  
     117  hru0117                117       5.44657      41.24726     -82.61725     218.02083       117     s41200n82600w         0         0         0         0  
     118  hru0118                118      11.68582      41.26009     -82.60761     215.80100       118     s41300n82600w         0         0         0         0  
     119  hru0119                119      72.72380      41.25510     -82.61420     213.55954       119     s41300n82600w         0         0         0         0  
     120  hru0120                120       4.47595      41.27322     -82.62117     200.40782       120     s41300n82600w         0         0         0         0  
     121  hru0121                121       5.58452      41.25258     -82.59608     225.14478       121     s41300n82600w         0         0         0         0  
     122  hru0122                122      17.74544      41.24917     -82.60695     218.83091       122     s41200n82600w         0         0         0         0  
     123  hru0123                123       4.71767      41.24998     -82.59878     221.13074       123     s41200n82600w         0         0         0         0  
     124  hru0124                124      12.37792      41.26498     -82.61284     213.06234       124     s41300n82600w         0         0         0         0  
     125  hru0125                125     137.25825      41.25488     -82.61429     213.90754       125     s41300n82600w         0         0         0         0  
     126  hru0126                126       8.82529      41.26358     -82.61600     208.13570       126     s41300n82600w         0         0         0         0  
     127  hru0127                127      38.75735      41.24988     -82.60354     219.54272       127     s41200n82600w         0         0         0         0  
     128  hru0128                128      14.20246      41.25090     -82.59686     221.99660       128     s41300n82600w         0         0         0         0  
     129  hru0129                129      11.38929      41.24625     -82.59224     230.23500       129     s41200n82600w         0         0         0         0  
     130  hru0130                130      37.21863      41.27512     -82.62291     206.06969       130     s41300n82600w         0         0         0         0  
     131  hru0131                131      20.03702      41.26097     -82.62742     210.36750       131     s41300n82600w         0         0         0         0  
     132  hru0132                132     209.15741      41.26452     -82.62658     209.89481       132     s41300n82600w         0         0         0         0  
     133  hru0133                133       9.43352      41.26334     -82.62553     206.28968       133     s41300n82600w         0         0         0         0  
     134  hru0134                134      12.57530      41.26602     -82.62954     210.07547       134     s41300n82600w         0         0         0         0  
     135  hru0135                135     162.97598      41.25316     -82.61469     214.32604       135     s41300n82600w         0         0         0         0  
     136  hru0136                136       5.47005      41.26367     -82.61720     211.98033       136     s41300n82600w         0         0         0         0  
     137  hru0137                137      38.19103      41.24760     -82.60718     220.40065       137     s41200n82600w         0         0         0         0  
     138  hru0138                138      13.52202      41.24966     -82.60033     221.30845       138     s41200n82600w         0         0         0         0  
     139  hru0139                139       8.00232      41.24572     -82.59438     230.00103       139     s41200n82600w         0         0         0         0  
     140  hru0140                140      51.80836      41.25468     -82.61277     213.72335       140     s41300n82600w         0         0         0         0  
     141  hru0141                141       4.15884      41.26183     -82.61160     208.72222       141     s41300n82600w         0         0         0         0  
     142  hru0142                142      20.55545      41.24586     -82.61388     219.39715       142     s41200n82600w         0         0         0         0  
     143  hru0143                143       3.39639      41.24647     -82.59484     226.13379       143     s41200n82600w         0         0         0         0  
     144  hru0144                144       7.84789      41.24506     -82.58971     231.20707       144     s41200n82600w         0         0         0         0  
     145  hru0145                145       6.96991      41.24319     -82.61424     221.56133       145     s41200n82600w         0         0         0         0  
     146  hru0146                146      55.33996      41.26780     -82.59315     204.12037       146     s41300n82600w         0         0         0         0  
     147  hru0147                147      47.63643      41.26383     -82.59182     212.00569       147     s41300n82600w         0         0         0         0  
     148  hru0148                148       9.90695      41.26659     -82.59375     212.75364       148     s41300n82600w         0         0         0         0  
     149  hru0149                149       6.82215      41.24714     -82.57224     241.82112       149     s41200n82600w         0         0         0         0  
     150  hru0150                150      19.64441      41.24601     -82.57513     240.28387       150     s41200n82600w         0         0         0         0  
     151  hru0151                151      13.45786      41.24702     -82.56481     248.10453       151     s41200n82600w         0         0         0         0  
     152  hru0152                152       4.48313      41.24741     -82.57837     234.29679       152     s41200n82600w         0         0         0         0  
     153  hru0153                153       4.81364      41.24338     -82.56067     252.35211       153     s41200n82600w         0         0         0         0  
     154  hru0154                154      10.69654      41.25983     -82.58982     215.47746       154     s41300n82600w         0         0         0         0  
     155  hru0155                155       6.50454      41.25830     -82.58313     224.45226       155     s41300n82600w         0         0         0         0  
     156  hru0156                156       3.74256      41.25830     -82.59056     216.89520       156     s41300n82600w         0         0         0         0  
     157  hru0157                157      19.03150      41.25466     -82.58134     228.15243       157     s41300n82600w         0         0         0         0  
     158  hru0158                158       5.40956      41.25020     -82.56573     244.66616       158     s41300n82600w         0         0         0         0  
     159  hru0159                159       1.97751      41.25165     -82.58449     224.90496       159     s41300n82600w         0         0         0         0  
     160  hru0160                160       6.56174      41.25192     -82.58294     229.97883       160     s41300n82600w         0         0         0         0  
     161  hru0161                161       2.88455      41.25211     -82.58341     229.20963       161     s41300n82600w         0         0         0         0  
     162  hru0162                162      11.30940      41.24538     -82.57617     241.38150       162     s41200n82600w         0         0         0         0  
     163  hru0163                163      58.94891      41.26420     -82.58864     213.94498       163     s41300n82600w         0         0         0         0  
     164  hru0164                164      42.61853      41.26559     -82.58404     215.19848       164     s41300n82600w         0         0         0         0  
     165  hru0165                165      91.14510      41.24827     -82.56460     247.10329       165     s41200n82600w         0         0         0         0  
     166  hru0166                166      13.98996      41.25709     -82.57490     234.72243       166     s41300n82600w         0         0         0         0  
     167  hru0167                167      16.64595      41.25811     -82.57615     230.03370       167     s41300n82600w         0         0         0         0  
     168  hru0168                168      35.80763      41.24758     -82.57256     242.69009       168     s41200n82600w         0         0         0         0  
     169  hru0169                169      10.93952      41.24687     -82.56412     248.07772       169     s41200n82600w         0         0         0         0  
     170  hru0170                170       2.77037      41.26287     -82.59118     212.82059       170     s41300n82600w         0         0         0         0  
     171  hru0171                171       1.74370      41.26352     -82.59280     212.13551       171     s41300n82600w         0         0         0         0  
     172  hru0172                172       2.24889      41.26018     -82.58176     222.90217       172     s41300n82600w         0         0         0         0  
     173  hru0173                173       7.83036      41.25993     -82.58634     217.53694       173     s41300n82600w         0         0         0         0  
     174  hru0174                174       4.68518      41.25762     -82.58238     225.02087       174     s41300n82600w         0         0         0         0  
     175  hru0175                175       7.54518      41.25703     -82.58180     224.82073       175     s41300n82600w         0         0         0         0  
     176  hru0176                176      14.24295      41.24942     -82.56542     246.40675       176     s41200n82600w         0         0         0         0  
     177  hru0177                177      10.23406      41.24917     -82.57345     240.30334       177     s41200n82600w         0         0         0         0  
     178  hru0178                178       2.24889      41.24649     -82.57128     242.17029       178     s41200n82600w         0         0         0         0  
     179  hru0179                179       2.96592      41.24443     -82.55815     253.81868       179     s41200n82600w         0         0         0         0  
     180  hru0180                180       1.53185      41.24448     -82.55680     254.56915       180     s41200n82600w         0         0         0         0  
     181  hru0181                181      18.81084      41.25965     -82.59122     215.97886       181     s41300n82600w         0         0         0         0  
     182  hru0182                182      12.97128      41.25847     -82.58296     224.01022       182     s41300n82600w         0         0         0         0  