hydrology.hyd: written by SWAT+ editor v2.3.3 on 2024-02-20 10:44 for SWAT+ rev.60.5.7
      name             lat_ttime  lat_sed              can_max                  esco                  epco  orgn_enrich  orgp_enrich               cn3_swf  bio_mix                 perco  lat_orgn  lat_orgp               pet_co               latq_co
   hyd0001            124.909718      0.0            69.243193              0.692751              0.693514          0.0          0.0              0.692647      0.2              0.692632       0.0       0.0             1.115451              0.693025
   hyd0002            124.909718      0.0            69.243193              0.692751              0.693514          0.0          0.0              0.692647      0.2              0.692632       0.0       0.0             1.115451              0.693025
   hyd0003            124.909718      0.0            69.243193              0.692751              0.693514          0.0          0.0              0.692647      0.2              0.692632       0.0       0.0             1.115451              0.693025
   hyd0004            124.909718      0.0            69.243193              0.692751              0.693514          0.0          0.0              0.692647      0.2              0.692632       0.0       0.0             1.115451              0.693025
   hyd0005            124.909718      0.0            69.243193              0.692751              0.693514          0.0          0.0              0.692647      0.2              0.692632       0.0       0.0             1.115451              0.693025
   hyd0006            124.909718      0.0            69.243193              0.692751              0.693514          0.0          0.0              0.692647      0.2              0.692632       0.0       0.0             1.115451              0.693025
   hyd0007            124.909718      0.0            69.243193              0.692751              0.693514          0.0          0.0              0.692647      0.2              0.692632       0.0       0.0             1.115451              0.693025
   hyd0008            124.909718      0.0            69.243193              0.692751              0.693514          0.0          0.0              0.692647      0.2              0.692632       0.0       0.0             1.115451              0.693025
   hyd0009            124.909718      0.0            69.243193              0.692751              0.693514          0.0          0.0              0.692647      0.2              0.692632       0.0       0.0             1.115451              0.693025
   hyd0010            124.909718      0.0            69.243193              0.692751              0.693514          0.0          0.0              0.692647      0.2              0.692632       0.0       0.0             1.115451              0.693025
   hyd0011            124.909718      0.0            69.243193              0.692751              0.693514          0.0          0.0              0.692647      0.2              0.692632       0.0       0.0             1.115451              0.693025
   hyd0012            124.909718      0.0            69.243193              0.692751              0.693514          0.0          0.0              0.692647      0.2              0.692632       0.0       0.0             1.115451              0.693025
   hyd0013            124.909718      0.0            69.243193              0.692751              0.693514          0.0          0.0              0.692647      0.2              0.692632       0.0       0.0             1.115451              0.693025
   hyd0014            124.909718      0.0            69.243193              0.692751              0.693514          0.0          0.0              0.692647      0.2              0.692632       0.0       0.0             1.115451              0.693025
   hyd0015            124.909718      0.0            69.243193              0.692751              0.693514          0.0          0.0              0.692647      0.2              0.692632       0.0       0.0             1.115451              0.693025
   hyd0016            124.909718      0.0            69.243193              0.692751              0.693514          0.0          0.0              0.692647      0.2              0.692632       0.0       0.0             1.115451              0.693025
   hyd0017            124.909718      0.0            69.243193              0.692751              0.693514          0.0          0.0              0.692647      0.2              0.692632       0.0       0.0             1.115451              0.693025
   hyd0018            124.909718      0.0            69.243193              0.692751              0.693514          0.0          0.0              0.692647      0.2              0.692632       0.0       0.0             1.115451              0.693025
   hyd0019            124.909718      0.0            69.243193              0.692751              0.693514          0.0          0.0              0.692647      0.2              0.692632       0.0       0.0             1.115451              0.693025
   hyd0020            124.909718      0.0            69.243193              0.692751              0.693514          0.0          0.0              0.692647      0.2              0.692632       0.0       0.0             1.115451              0.693025
   hyd0021            124.909718      0.0            69.243193              0.692751              0.693514          0.0          0.0              0.692647      0.2              0.692632       0.0       0.0             1.115451              0.693025
   hyd0022            124.909718      0.0            69.243193              0.692751              0.693514          0.0          0.0              0.692647      0.2              0.692632       0.0       0.0             1.115451              0.693025
   hyd0023            124.909718      0.0            69.243193              0.692751              0.693514          0.0          0.0              0.692647      0.2              0.692632       0.0       0.0             1.115451              0.693025
   hyd0024            124.909718      0.0            69.243193              0.692751              0.693514          0.0          0.0              0.692647      0.2              0.692632       0.0       0.0             1.115451              0.693025
   hyd0025            124.909718      0.0            69.243193              0.692751              0.693514          0.0          0.0              0.692647      0.2              0.692632       0.0       0.0             1.115451              0.693025
   hyd0026            124.909718      0.0            69.243193              0.692751              0.693514          0.0          0.0              0.692647      0.2              0.692632       0.0       0.0             1.115451              0.693025
   hyd0027            124.909718      0.0            69.243193              0.692751              0.693514          0.0          0.0              0.692647      0.2              0.692632       0.0       0.0             1.115451              0.693025
   hyd0028            124.909718      0.0            69.243193              0.692751              0.693514          0.0          0.0              0.692647      0.2              0.692632       0.0       0.0             1.115451              0.693025
   hyd0029            124.909718      0.0            69.243193              0.692751              0.693514          0.0          0.0              0.692647      0.2              0.692632       0.0       0.0             1.115451              0.693025
   hyd0030            124.909718      0.0            69.243193              0.692751              0.693514          0.0          0.0              0.692647      0.2              0.692632       0.0       0.0             1.115451              0.693025
   hyd0031            124.909718      0.0            69.243193              0.692751              0.693514          0.0          0.0              0.692647      0.2              0.692632       0.0       0.0             1.115451              0.693025
   hyd0032            124.909718      0.0            69.243193              0.692751              0.693514          0.0          0.0              0.692647      0.2              0.692632       0.0       0.0             1.115451              0.693025
   hyd0033            124.909718      0.0            69.243193              0.692751              0.693514          0.0          0.0              0.692647      0.2              0.692632       0.0       0.0             1.115451              0.693025
   hyd0034            124.909718      0.0            69.243193              0.692751              0.693514          0.0          0.0              0.692647      0.2              0.692632       0.0       0.0             1.115451              0.693025
   hyd0035            124.909718      0.0            69.243193              0.692751              0.693514          0.0          0.0              0.692647      0.2              0.692632       0.0       0.0             1.115451              0.693025
   hyd0036            124.909718      0.0            69.243193              0.692751              0.693514          0.0          0.0              0.692647      0.2              0.692632       0.0       0.0             1.115451              0.693025
   hyd0037            124.909718      0.0            69.243193              0.692751              0.693514          0.0          0.0              0.692647      0.2              0.692632       0.0       0.0             1.115451              0.693025
   hyd0038            124.909718      0.0            69.243193              0.692751              0.693514          0.0          0.0              0.692647      0.2              0.692632       0.0       0.0             1.115451              0.693025
   hyd0039            124.909718      0.0            69.243193              0.692751              0.693514          0.0          0.0              0.692647      0.2              0.692632       0.0       0.0             1.115451              0.693025
   hyd0040            124.909718      0.0            69.243193              0.692751              0.693514          0.0          0.0              0.692647      0.2              0.692632       0.0       0.0             1.115451              0.693025
   hyd0041            124.909718      0.0            69.243193              0.692751              0.693514          0.0          0.0              0.692647      0.2              0.692632       0.0       0.0             1.115451              0.693025
   hyd0042            124.909718      0.0            69.243193              0.692751              0.693514          0.0          0.0              0.692647      0.2              0.692632       0.0       0.0             1.115451              0.693025
   hyd0043            124.909718      0.0            69.243193              0.692751              0.693514          0.0          0.0              0.692647      0.2              0.692632       0.0       0.0             1.115451              0.693025
   hyd0044            124.909718      0.0            69.243193              0.692751              0.693514          0.0          0.0              0.692647      0.2              0.692632       0.0       0.0             1.115451              0.693025
   hyd0045            124.909718      0.0            69.243193              0.692751              0.693514          0.0          0.0              0.692647      0.2              0.692632       0.0       0.0             1.115451              0.693025
   hyd0046            124.909718      0.0            69.243193              0.692751              0.693514          0.0          0.0              0.692647      0.2              0.692632       0.0       0.0             1.115451              0.693025
   hyd0047            124.909718      0.0            69.243193              0.692751              0.693514          0.0          0.0              0.692647      0.2              0.692632       0.0       0.0             1.115451              0.693025
   hyd0048            124.909718      0.0            69.243193              0.692751              0.693514          0.0          0.0              0.692647      0.2              0.692632       0.0       0.0             1.115451              0.693025
   hyd0049            124.909718      0.0            69.243193              0.692751              0.693514          0.0          0.0              0.692647      0.2              0.692632       0.0       0.0             1.115451              0.693025
   hyd0050            124.909718      0.0            69.243193              0.692751              0.693514          0.0          0.0              0.692647      0.2              0.692632       0.0       0.0             1.115451              0.693025
   hyd0051            124.909718      0.0            69.243193              0.692751              0.693514          0.0          0.0              0.692647      0.2              0.692632       0.0       0.0             1.115451              0.693025
   hyd0052            124.909718      0.0            69.243193              0.692751              0.693514          0.0          0.0              0.692647      0.2              0.692632       0.0       0.0             1.115451              0.693025
   hyd0053            124.909718      0.0            69.243193              0.692751              0.693514          0.0          0.0              0.692647      0.2              0.692632       0.0       0.0             1.115451              0.693025
   hyd0054            124.909718      0.0            69.243193              0.692751              0.693514          0.0          0.0              0.692647      0.2              0.692632       0.0       0.0             1.115451              0.693025
   hyd0055            124.909718      0.0            69.243193              0.692751              0.693514          0.0          0.0              0.692647      0.2              0.692632       0.0       0.0             1.115451              0.693025
   hyd0056            124.909718      0.0            69.243193              0.692751              0.693514          0.0          0.0              0.692647      0.2              0.692632       0.0       0.0             1.115451              0.693025
   hyd0057            124.909718      0.0            69.243193              0.692751              0.693514          0.0          0.0              0.692647      0.2              0.692632       0.0       0.0             1.115451              0.693025
   hyd0058            124.909718      0.0            69.243193              0.692751              0.693514          0.0          0.0              0.692647      0.2              0.692632       0.0       0.0             1.115451              0.693025
   hyd0059            124.909718      0.0            69.243193              0.692751              0.693514          0.0          0.0              0.692647      0.2              0.692632       0.0       0.0             1.115451              0.693025
   hyd0060            124.909718      0.0            69.243193              0.692751              0.693514          0.0          0.0              0.692647      0.2              0.692632       0.0       0.0             1.115451              0.693025
   hyd0061            124.909718      0.0            69.243193              0.692751              0.693514          0.0          0.0              0.692647      0.2              0.692632       0.0       0.0             1.115451              0.693025
   hyd0062            124.909718      0.0            69.243193              0.692751              0.693514          0.0          0.0              0.692647      0.2              0.692632       0.0       0.0             1.115451              0.693025
   hyd0063            124.909718      0.0            69.243193              0.692751              0.693514          0.0          0.0              0.692647      0.2              0.692632       0.0       0.0             1.115451              0.693025
   hyd0064            124.909718      0.0            69.243193              0.692751              0.693514          0.0          0.0              0.692647      0.2              0.692632       0.0       0.0             1.115451              0.693025
   hyd0065            124.909718      0.0            69.243193              0.692751              0.693514          0.0          0.0              0.692647      0.2              0.692632       0.0       0.0             1.115451              0.693025
   hyd0066            124.909718      0.0            69.243193              0.692751              0.693514          0.0          0.0              0.692647      0.2              0.692632       0.0       0.0             1.115451              0.693025
   hyd0067            124.909718      0.0            69.243193              0.692751              0.693514          0.0          0.0              0.692647      0.2              0.692632       0.0       0.0             1.115451              0.693025
   hyd0068            124.909718      0.0            69.243193              0.692751              0.693514          0.0          0.0              0.692647      0.2              0.692632       0.0       0.0             1.115451              0.693025
   hyd0069            124.909718      0.0            69.243193              0.692751              0.693514          0.0          0.0              0.692647      0.2              0.692632       0.0       0.0             1.115451              0.693025
   hyd0070            124.909718      0.0            69.243193              0.692751              0.693514          0.0          0.0              0.692647      0.2              0.692632       0.0       0.0             1.115451              0.693025
   hyd0071            124.909718      0.0            69.243193              0.692751              0.693514          0.0          0.0              0.692647      0.2              0.692632       0.0       0.0             1.115451              0.693025
   hyd0072            124.909718      0.0            69.243193              0.692751              0.693514          0.0          0.0              0.692647      0.2              0.692632       0.0       0.0             1.115451              0.693025
   hyd0073            124.909718      0.0            69.243193              0.692751              0.693514          0.0          0.0              0.692647      0.2              0.692632       0.0       0.0             1.115451              0.693025
   hyd0074            124.909718      0.0            69.243193              0.692751              0.693514          0.0          0.0              0.692647      0.2              0.692632       0.0       0.0             1.115451              0.693025
   hyd0075            124.909718      0.0            69.243193              0.692751              0.693514          0.0          0.0              0.692647      0.2              0.692632       0.0       0.0             1.115451              0.693025
   hyd0076            124.909718      0.0            69.243193              0.692751              0.693514          0.0          0.0              0.692647      0.2              0.692632       0.0       0.0             1.115451              0.693025
   hyd0077            124.909718      0.0            69.243193              0.692751              0.693514          0.0          0.0              0.692647      0.2              0.692632       0.0       0.0             1.115451              0.693025
   hyd0078            124.909718      0.0            69.243193              0.692751              0.693514          0.0          0.0              0.692647      0.2              0.692632       0.0       0.0             1.115451              0.693025
   hyd0079            124.909718      0.0            69.243193              0.692751              0.693514          0.0          0.0              0.692647      0.2              0.692632       0.0       0.0             1.115451              0.693025
   hyd0080            124.909718      0.0            69.243193              0.692751              0.693514          0.0          0.0              0.692647      0.2              0.692632       0.0       0.0             1.115451              0.693025
   hyd0081            124.909718      0.0            69.243193              0.692751              0.693514          0.0          0.0              0.692647      0.2              0.692632       0.0       0.0             1.115451              0.693025
   hyd0082            124.909718      0.0            69.243193              0.692751              0.693514          0.0          0.0              0.692647      0.2              0.692632       0.0       0.0             1.115451              0.693025
   hyd0083            124.909718      0.0            69.243193              0.692751              0.693514          0.0          0.0              0.692647      0.2              0.692632       0.0       0.0             1.115451              0.693025
   hyd0084            124.909718      0.0            69.243193              0.692751              0.693514          0.0          0.0              0.692647      0.2              0.692632       0.0       0.0             1.115451              0.693025
   hyd0085            124.909718      0.0            69.243193              0.692751              0.693514          0.0          0.0              0.692647      0.2              0.692632       0.0       0.0             1.115451              0.693025
   hyd0086            124.909718      0.0            69.243193              0.692751              0.693514          0.0          0.0              0.692647      0.2              0.692632       0.0       0.0             1.115451              0.693025
   hyd0087            124.909718      0.0            69.243193              0.692751              0.693514          0.0          0.0              0.692647      0.2              0.692632       0.0       0.0             1.115451              0.693025
   hyd0088            124.909718      0.0            69.243193              0.692751              0.693514          0.0          0.0              0.692647      0.2              0.692632       0.0       0.0             1.115451              0.693025
   hyd0089            124.909718      0.0            69.243193              0.692751              0.693514          0.0          0.0              0.692647      0.2              0.692632       0.0       0.0             1.115451              0.693025
   hyd0090            124.909718      0.0            69.243193              0.692751              0.693514          0.0          0.0              0.692647      0.2              0.692632       0.0       0.0             1.115451              0.693025
   hyd0091            124.909718      0.0            69.243193              0.692751              0.693514          0.0          0.0              0.692647      0.2              0.692632       0.0       0.0             1.115451              0.693025
   hyd0092            124.909718      0.0            69.243193              0.692751              0.693514          0.0          0.0              0.692647      0.2              0.692632       0.0       0.0             1.115451              0.693025
   hyd0093            124.909718      0.0            69.243193              0.692751              0.693514          0.0          0.0              0.692647      0.2              0.692632       0.0       0.0             1.115451              0.693025
   hyd0094            124.909718      0.0            69.243193              0.692751              0.693514          0.0          0.0              0.692647      0.2              0.692632       0.0       0.0             1.115451              0.693025
   hyd0095            124.909718      0.0            69.243193              0.692751              0.693514          0.0          0.0              0.692647      0.2              0.692632       0.0       0.0             1.115451              0.693025
   hyd0096            124.909718      0.0            69.243193              0.692751              0.693514          0.0          0.0              0.692647      0.2              0.692632       0.0       0.0             1.115451              0.693025
   hyd0097            124.909718      0.0            69.243193              0.692751              0.693514          0.0          0.0              0.692647      0.2              0.692632       0.0       0.0             1.115451              0.693025
   hyd0098            124.909718      0.0            69.243193              0.692751              0.693514          0.0          0.0              0.692647      0.2              0.692632       0.0       0.0             1.115451              0.693025
   hyd0099            124.909718      0.0            69.243193              0.692751              0.693514          0.0          0.0              0.692647      0.2              0.692632       0.0       0.0             1.115451              0.693025
   hyd0100            124.909718      0.0            69.243193              0.692751              0.693514          0.0          0.0              0.692647      0.2              0.692632       0.0       0.0             1.115451              0.693025
   hyd0101            124.909718      0.0            69.243193              0.692751              0.693514          0.0          0.0              0.692647      0.2              0.692632       0.0       0.0             1.115451              0.693025
   hyd0102            124.909718      0.0            69.243193              0.692751              0.693514          0.0          0.0              0.692647      0.2              0.692632       0.0       0.0             1.115451              0.693025
   hyd0103            124.909718      0.0            69.243193              0.692751              0.693514          0.0          0.0              0.692647      0.2              0.692632       0.0       0.0             1.115451              0.693025
   hyd0104            124.909718      0.0            69.243193              0.692751              0.693514          0.0          0.0              0.692647      0.2              0.692632       0.0       0.0             1.115451              0.693025
   hyd0105            124.909718      0.0            69.243193              0.692751              0.693514          0.0          0.0              0.692647      0.2              0.692632       0.0       0.0             1.115451              0.693025
   hyd0106            124.909718      0.0            69.243193              0.692751              0.693514          0.0          0.0              0.692647      0.2              0.692632       0.0       0.0             1.115451              0.693025
   hyd0107            124.909718      0.0            69.243193              0.692751              0.693514          0.0          0.0              0.692647      0.2              0.692632       0.0       0.0             1.115451              0.693025
   hyd0108            124.909718      0.0            69.243193              0.692751              0.693514          0.0          0.0              0.692647      0.2              0.692632       0.0       0.0             1.115451              0.693025
   hyd0109            124.909718      0.0            69.243193              0.692751              0.693514          0.0          0.0              0.692647      0.2              0.692632       0.0       0.0             1.115451              0.693025
   hyd0110            124.909718      0.0            69.243193              0.692751              0.693514          0.0          0.0              0.692647      0.2              0.692632       0.0       0.0             1.115451              0.693025
   hyd0111            124.909718      0.0            69.243193              0.692751              0.693514          0.0          0.0              0.692647      0.2              0.692632       0.0       0.0             1.115451              0.693025
   hyd0112            124.909718      0.0            69.243193              0.692751              0.693514          0.0          0.0              0.692647      0.2              0.692632       0.0       0.0             1.115451              0.693025
   hyd0113            124.909718      0.0            69.243193              0.692751              0.693514          0.0          0.0              0.692647      0.2              0.692632       0.0       0.0             1.115451              0.693025
   hyd0114            124.909718      0.0            69.243193              0.692751              0.693514          0.0          0.0              0.692647      0.2              0.692632       0.0       0.0             1.115451              0.693025
   hyd0115            124.909718      0.0            69.243193              0.692751              0.693514          0.0          0.0              0.692647      0.2              0.692632       0.0       0.0             1.115451              0.693025
   hyd0116            124.909718      0.0            69.243193              0.692751              0.693514          0.0          0.0              0.692647      0.2              0.692632       0.0       0.0             1.115451              0.693025
   hyd0117            124.909718      0.0            69.243193              0.692751              0.693514          0.0          0.0              0.692647      0.2              0.692632       0.0       0.0             1.115451              0.693025
   hyd0118            124.909718      0.0            69.243193              0.692751              0.693514          0.0          0.0              0.692647      0.2              0.692632       0.0       0.0             1.115451              0.693025
   hyd0119            124.909718      0.0            69.243193              0.692751              0.693514          0.0          0.0              0.692647      0.2              0.692632       0.0       0.0             1.115451              0.693025