management.sch: written by SWAT+ editor v2.3.3 on 2024-02-20 10:44 for SWAT+ rev.60.5.7
name                                       numb_ops  numb_auto            op_typ       mon       day        hu_sch          op_data1          op_data2      op_data3  
crgr_rot                         12          1  
                                                   pl_hv_summer1   crgr  
                                                            fert         1         1       0.00000          20_20_00         broadcast      #fert_1#  
                                                            fert         2         1       0.00000          20_20_00         broadcast      #fert_2#  
                                                            fert         3         1       0.00000          20_20_00         broadcast      #fert_3#  
                                                            fert         4         1       0.00000          20_20_00         broadcast      #fert_4#  
                                                            fert         5         1       0.00000          20_20_00         broadcast      #fert_5#  
                                                            fert         6         1       0.00000          20_20_00         broadcast      #fert_6#  
                                                            fert         7         1       0.00000          20_20_00         broadcast      #fert_7#  
                                                            fert         8         1       0.00000          20_20_00         broadcast      #fert_8#  
                                                            fert         9         1       0.00000          20_20_00         broadcast      #fert_9#  
                                                            fert        10         1       0.00000          20_20_00         broadcast      #fert_10#  
                                                            fert        11         1       0.00000          20_20_00         broadcast      #fert_11#  
                                                            fert        12         1       0.00000          20_20_00         broadcast      #fert_12#  
