parameters.bsn: written by SWAT+ editor v2.3.3 on 2024-02-20 10:44 for SWAT+ rev.60.5.7
          lai_noevap              sw_init              surq_lag  adj_pkrt  adj_pkrt_sed  lin_sed  exp_sed  orgn_min  n_uptake  p_uptake  n_perc  p_perc   p_soil  p_avail  rsd_decomp  pest_perc              msk_co1              msk_co2                  msk_x  nperco_lchtile              evap_adj                 scoef  denit_exp  denit_frac  man_bact  adj_uhyd  cn_froz  dorm_hr  plaps  tlaps  n_fix_max  rsd_decay  rsd_cover  urb_init_abst  petco_pmpt  uhyd_alpha  splash   rill              surq_exp  cov_mgt  cha_d50      co2  day_lag_max   igen
            6.926912             0.693357             16.934856       1.0           1.0      0.0      1.0       0.0      20.0      20.0     0.1    10.0    175.0      0.4        0.05        0.5             6.920922             6.917327               0.207858             0.5              0.847132               0.69175        1.4         1.3      0.15       0.0      0.0      0.0    0.0    0.0       20.0       0.01        0.3            1.0         1.0         5.0     1.0    0.7              2.384837     0.03     50.0    400.0          0.0    0.0