pcp.cli: Precipitation file names - file written by SWAT+ editor 2024-01-04 23:09:51.109117
filename
10pcp.pcp
11pcp.pcp
12pcp.pcp
1pcp.pcp
2pcp.pcp
3pcp.pcp
4pcp.pcp
5pcp.pcp
6pcp.pcp
7pcp.pcp
8pcp.pcp
9pcp.pcp
