snow.sno: written by SWAT+ editor v2.3.3 on 2024-02-20 10:44 for SWAT+ rev.60.5.7
      name              fall_tmp              melt_tmp              melt_max              melt_min              tmp_lag             snow_h2o                 cov50            snow_init
   snow001              1.930338              1.920338              6.930523              6.930523             0.691856           346.138216              0.620693           691.740524