tiledrain.str: written by SWAT+ editor v2.3.3 on 2024-02-20 10:44 for SWAT+ rev.60.5.7
        name                   dp                 t_fc                  lag                   rad                  dist                drain                 pump             lat_ksat
   mw24_1000           4161.80152            69.192369            69.265732             28.568703          23125.556609            38.389164             6.923076             2.759117