tmp.cli: Temperature file names - file written by SWAT+ editor 2024-01-04 23:09:51.680250
filename
10tmp.tmp
11tmp.tmp
12tmp.tmp
1tmp.tmp
2tmp.tmp
3tmp.tmp
4tmp.tmp
5tmp.tmp
6tmp.tmp
7tmp.tmp
8tmp.tmp
9tmp.tmp
