aquifer.aqu: written by SWAT+ editor v2.3.3 on 2024-02-20 10:44 for SWAT+ rev.60.5.7
      id  name                          init        gw_flo       dep_bot        dep_wt         no3_n         sol_p        carbon      flo_dist        bf_max      alpha_bf         revap       rchg_dp      spec_yld       hl_no3n       flo_min     revap_min  
       1  aqu010                    initaqu1       0.05000      10.00000       3.00000       0.00000       0.00000       0.50000      50.00000       1.00000       0.05000       0.02000       0.05000       0.05000      30.00000       3.00000       5.00000  
       2  aqu020                    initaqu1       0.05000      10.00000       3.00000       0.00000       0.00000       0.50000      50.00000       1.00000       0.05000       0.02000       0.05000       0.05000      30.00000       3.00000       5.00000  
       3  aqu030                    initaqu1       0.05000      10.00000       3.00000       0.00000       0.00000       0.50000      50.00000       1.00000       0.05000       0.02000       0.05000       0.05000      30.00000       3.00000       5.00000  
       4  aqu040                    initaqu1       0.05000      10.00000       3.00000       0.00000       0.00000       0.50000      50.00000       1.00000       0.05000       0.02000       0.05000       0.05000      30.00000       3.00000       5.00000  
       5  aqu050                    initaqu1       0.05000      10.00000       3.00000       0.00000       0.00000       0.50000      50.00000       1.00000       0.05000       0.02000       0.05000       0.05000      30.00000       3.00000       5.00000  
       6  aqu060                    initaqu1       0.05000      10.00000       3.00000       0.00000       0.00000       0.50000      50.00000       1.00000       0.05000       0.02000       0.05000       0.05000      30.00000       3.00000       5.00000  
       7  aqu070                    initaqu1       0.05000      10.00000       3.00000       0.00000       0.00000       0.50000      50.00000       1.00000       0.05000       0.02000       0.05000       0.05000      30.00000       3.00000       5.00000  
       8  aqu080                    initaqu1       0.05000      10.00000       3.00000       0.00000       0.00000       0.50000      50.00000       1.00000       0.05000       0.02000       0.05000       0.05000      30.00000       3.00000       5.00000  
       9  aqu090                    initaqu1       0.05000      10.00000       3.00000       0.00000       0.00000       0.50000      50.00000       1.00000       0.05000       0.02000       0.05000       0.05000      30.00000       3.00000       5.00000  
      10  aqu100                    initaqu1       0.05000      10.00000       3.00000       0.00000       0.00000       0.50000      50.00000       1.00000       0.05000       0.02000       0.05000       0.05000      30.00000       3.00000       5.00000  
      11  aqu110                    initaqu1       0.05000      10.00000       3.00000       0.00000       0.00000       0.50000      50.00000       1.00000       0.05000       0.02000       0.05000       0.05000      30.00000       3.00000       5.00000  
      12  aqu120                    initaqu1       0.05000      10.00000       3.00000       0.00000       0.00000       0.50000      50.00000       1.00000       0.05000       0.02000       0.05000       0.05000      30.00000       3.00000       5.00000  
      13  aqu130                    initaqu1       0.05000      10.00000       3.00000       0.00000       0.00000       0.50000      50.00000       1.00000       0.05000       0.02000       0.05000       0.05000      30.00000       3.00000       5.00000  
      14  aqu140                    initaqu1       0.05000      10.00000       3.00000       0.00000       0.00000       0.50000      50.00000       1.00000       0.05000       0.02000       0.05000       0.05000      30.00000       3.00000       5.00000  
      15  aqu150                    initaqu1       0.05000      10.00000       3.00000       0.00000       0.00000       0.50000      50.00000       1.00000       0.05000       0.02000       0.05000       0.05000      30.00000       3.00000       5.00000  
      16  aqu160                    initaqu1       0.05000      10.00000       3.00000       0.00000       0.00000       0.50000      50.00000       1.00000       0.05000       0.02000       0.05000       0.05000      30.00000       3.00000       5.00000  
      17  aqu170                    initaqu1       0.05000      10.00000       3.00000       0.00000       0.00000       0.50000      50.00000       1.00000       0.05000       0.02000       0.05000       0.05000      30.00000       3.00000       5.00000  
      18  aqu180                    initaqu1       0.05000      10.00000       3.00000       0.00000       0.00000       0.50000      50.00000       1.00000       0.05000       0.02000       0.05000       0.05000      30.00000       3.00000       5.00000  
      19  aqu190                    initaqu1       0.05000      10.00000       3.00000       0.00000       0.00000       0.50000      50.00000       1.00000       0.05000       0.02000       0.05000       0.05000      30.00000       3.00000       5.00000  
      20  aqu200                    initaqu1       0.05000      10.00000       3.00000       0.00000       0.00000       0.50000      50.00000       1.00000       0.05000       0.02000       0.05000       0.05000      30.00000       3.00000       5.00000  
      21  aqu210                    initaqu1       0.05000      10.00000       3.00000       0.00000       0.00000       0.50000      50.00000       1.00000       0.05000       0.02000       0.05000       0.05000      30.00000       3.00000       5.00000  
      22  aqu220                    initaqu1       0.05000      10.00000       3.00000       0.00000       0.00000       0.50000      50.00000       1.00000       0.05000       0.02000       0.05000       0.05000      30.00000       3.00000       5.00000  
      23  aqu230                    initaqu1       0.05000      10.00000       3.00000       0.00000       0.00000       0.50000      50.00000       1.00000       0.05000       0.02000       0.05000       0.05000      30.00000       3.00000       5.00000  
      24  aqu240                    initaqu1       0.05000      10.00000       3.00000       0.00000       0.00000       0.50000      50.00000       1.00000       0.05000       0.02000       0.05000       0.05000      30.00000       3.00000       5.00000  
      25  aqu250                    initaqu1       0.05000      10.00000       3.00000       0.00000       0.00000       0.50000      50.00000       1.00000       0.05000       0.02000       0.05000       0.05000      30.00000       3.00000       5.00000  
      26  aqu260                    initaqu1       0.05000      10.00000       3.00000       0.00000       0.00000       0.50000      50.00000       1.00000       0.05000       0.02000       0.05000       0.05000      30.00000       3.00000       5.00000  
      27  aqu270                    initaqu1       0.05000      10.00000       3.00000       0.00000       0.00000       0.50000      50.00000       1.00000       0.05000       0.02000       0.05000       0.05000      30.00000       3.00000       5.00000  
      28  aqu_deep002               initaqu1       0.00000     100.00000      20.00000       0.00000       0.00000       0.50000      50.00000       1.00000       0.01000       0.00000       0.00000       0.03000      30.00000       0.00000       0.00000  
