management.sch: written by SWAT+ editor v2.3.3 on 2024-01-30 23:01 for SWAT+ rev.60.5.7
name                                       numb_ops  numb_auto            op_typ       mon       day        hu_sch          op_data1          op_data2      op_data3  
crgr_rot                          0          2  
                                                   pl_hv_summer1   crgr  
                                                 fert_stess_test  
