rout_unit.con: written by SWAT+ editor v2.3.3 on 2024-02-20 10:44 for SWAT+ rev.60.5.7
      id  name                gis_id          area           lat           lon          elev       rtu               wst       cst      ovfl      rule   out_tot       obj_typ    obj_id       hyd_typ          frac  
       1  rtu0010                 10     240.37072      41.30085     -82.61453     197.52007         1     s41300n82600w         0         0         0         2           sdc         1           tot       1.00000           aqu         2           rhg       1.00000  
       2  rtu0020                 20     688.59137      41.29985     -82.64009     199.48679         2     s41300n82600w         0         0         0         2           sdc         2           tot       1.00000           aqu         1           rhg       1.00000  
       3  rtu0030                 30     232.03378      41.29356     -82.65682     202.46227         3     s41300n82700w         0         0         0         2           sdc         3           tot       1.00000           aqu         3           rhg       1.00000  
       4  rtu0040                 40     571.03971      41.27885     -82.66398     206.49409         4     s41300n82700w         0         0         0         2           sdc         4           tot       1.00000           aqu         3           rhg       1.00000  
       5  rtu0050                 50     110.80164      41.28338     -82.68217     207.74422         5     s41300n82700w         0         0         0         2           sdc         5           tot       1.00000           aqu         3           rhg       1.00000  
       6  rtu0060                 60     760.41277      41.25807     -82.69103     212.02323         6     s41300n82700w         0         0         0         2           sdc         6           tot       1.00000           aqu         7           rhg       1.00000  
       7  rtu0070                 70     482.66363      41.22550     -82.69073     221.86946         7     s41200n82700w         0         0         0         2           sdc         7           tot       1.00000           aqu         7           rhg       1.00000  
       8  rtu0080                 80      43.40575      41.22112     -82.70128     218.12719         8     s41200n82700w         0         0         0         2           sdc         8           tot       1.00000           aqu        15           rhg       1.00000  
       9  rtu0090                 90     446.49217      41.20000     -82.68994     225.94026         9     s41200n82700w         0         0         0         2           sdc         9           tot       1.00000           aqu        16           rhg       1.00000  
      10  rtu0100                100     125.08397      41.17802     -82.69891     231.70141        10     s41200n82700w         0         0         0         2           sdc        10           tot       1.00000           aqu        16           rhg       1.00000  
      11  rtu0110                110    1123.34924      41.14915     -82.71436     243.03345        11     s41100n82700w         0         0         0         2           sdc        11           tot       1.00000           aqu        16           rhg       1.00000  
      12  rtu0120                120     405.79835      41.12820     -82.69507     247.43533        12     s41100n82700w         0         0         0         2           sdc        12           tot       1.00000           aqu        20           rhg       1.00000  
      13  rtu0130                130    1205.06471      41.25038     -82.64699     209.91730        13     s41300n82600w         0         0         0         2           sdc        13           tot       1.00000           aqu         5           rhg       1.00000  
      14  rtu0140                140       3.17385      41.22810     -82.64646     211.44131        14     s41200n82600w         0         0         0         2           sdc        14           tot       1.00000           aqu        13           rhg       1.00000  
      15  rtu0150                150     603.13583      41.12665     -82.66730     254.48897        15     s41100n82700w         0         0         0         2           sdc        15           tot       1.00000           aqu        20           rhg       1.00000  
      16  rtu0160                160    1711.95688      41.19708     -82.72484     232.17756        16     s41200n82700w         0         0         0         2           sdc        16           tot       1.00000           aqu        17           rhg       1.00000  
      17  rtu0170                170    1322.31835      41.09086     -82.64506     273.03469        17     s41100n82600w         0         0         0         2           sdc        17           tot       1.00000           aqu        20           rhg       1.00000  
      18  rtu0180                180      32.58784      41.07119     -82.65781     274.13717        18     s41100n82700w         0         0         0         2           sdc        18           tot       1.00000           aqu        20           rhg       1.00000  
      19  rtu0190                190     196.36149      41.18391     -82.74330     235.28130        19     s41200n82700w         0         0         0         2           sdc        19           tot       1.00000           aqu        17           rhg       1.00000  
      20  rtu0200                200     524.91458      41.05879     -82.65875     281.96858        20     s41100n82700w         0         0         0         2           sdc        20           tot       1.00000           aqu        25           rhg       1.00000  
      21  rtu0210                210     422.27853      41.03156     -82.64045     298.32529        21     s41000n82600w         0         0         0         2           sdc        21           tot       1.00000           aqu        25           rhg       1.00000  
      22  rtu0220                220    2953.79653      41.19102     -82.65688     233.17953        22     s41200n82700w         0         0         0         2           sdc        22           tot       1.00000           aqu        10           rhg       1.00000  
      23  rtu0230                230       8.86592      41.15863     -82.63679     244.01429        23     s41200n82600w         0         0         0         2           sdc        23           tot       1.00000           aqu        10           rhg       1.00000  
      24  rtu0240                240     345.08542      41.14324     -82.62103     263.52776        24     s41100n82600w         0         0         0         2           sdc        24           tot       1.00000           aqu        10           rhg       1.00000  
      25  rtu0250                250    1027.85807      41.15578     -82.77440     247.59282        25     s41200n82800w         0         0         0         2           sdc        25           tot       1.00000           aqu        17           rhg       1.00000  
      26  rtu0260                260      14.15567      41.22891     -82.64037     209.25842        26     s41200n82600w         0         0         0         2           sdc        26           tot       1.00000           aqu        12           rhg       1.00000  
      27  rtu0270                270      28.61680      41.29388     -82.61415     194.60661        27     s41300n82600w         0         0         0         2           sdc        27           tot       1.00000           aqu         4           rhg       1.00000  
      28  rtu0280                280     221.86405      41.21650     -82.63429     217.23459        28     s41200n82600w         0         0         0         2           sdc        28           tot       1.00000           aqu        14           rhg       1.00000  
      29  rtu0290                290       8.65731      41.20485     -82.62830     221.94492        29     s41200n82600w         0         0         0         2           sdc        29           tot       1.00000           aqu        14           rhg       1.00000  
      30  rtu0300                300     194.36479      41.12196     -82.62160     271.39336        30     s41100n82600w         0         0         0         2           sdc        30           tot       1.00000           aqu        10           rhg       1.00000  
      31  rtu0310                310     566.95692      41.03549     -82.68607     283.76059        31     s41000n82700w         0         0         0         2           sdc        31           tot       1.00000           aqu        26           rhg       1.00000  
      32  rtu0320                320    1449.11590      41.01933     -82.65767     295.92737        32     s41000n82700w         0         0         0         2           sdc        32           tot       1.00000           aqu        27           rhg       1.00000  
      33  rtu0330                330       2.92799      41.02371     -82.69849     280.55471        33     s41000n82700w         0         0         0         2           sdc        33           tot       1.00000           aqu        26           rhg       1.00000  
      34  rtu0340                340     455.38789      41.27708     -82.60733     203.65494        34     s41300n82600w         0         0         0         2           sdc        34           tot       1.00000           aqu         4           rhg       1.00000  
      35  rtu0350                350     228.33840      41.19505     -82.62555     237.34609        35     s41200n82600w         0         0         0         2           sdc        35           tot       1.00000           aqu        14           rhg       1.00000  
      36  rtu0360                360       3.15895      41.02309     -82.70399     280.28066        36     s41000n82700w         0         0         0         2           sdc        36           tot       1.00000           aqu        26           rhg       1.00000  
      37  rtu0370                370    1496.50014      41.21693     -82.75867     234.57900        37     s41200n82800w         0         0         0         2           sdc        37           tot       1.00000           aqu         9           rhg       1.00000  
      38  rtu0380                380     473.74556      41.02816     -82.73936     285.37085        38     s41000n82700w         0         0         0         2           sdc        38           tot       1.00000           aqu        26           rhg       1.00000  
      39  rtu0390                390     153.29100      41.20073     -82.78369     239.38391        39     s41200n82800w         0         0         0         2           sdc        39           tot       1.00000           aqu        18           rhg       1.00000  
      40  rtu0400                400     742.59153      41.26542     -82.72402     222.32072        40     s41300n82700w         0         0         0         2           sdc        40           tot       1.00000           aqu         6           rhg       1.00000  
      41  rtu0410                410     885.06462      41.11575     -82.72337     255.05261        41     s41100n82700w         0         0         0         2           sdc        41           tot       1.00000           aqu        23           rhg       1.00000  
      42  rtu0420                420      43.97198      41.10299     -82.72573     255.81837        42     s41100n82700w         0         0         0         2           sdc        42           tot       1.00000           aqu        23           rhg       1.00000  
      43  rtu0430                430     923.23277      41.00289     -82.62854     314.50157        43     s41000n82600w         0         0         0         2           sdc        43           tot       1.00000           aqu        27           rhg       1.00000  
      44  rtu0440                440     407.37782      41.12343     -82.80961     261.34584        44     s41100n82800w         0         0         0         2           sdc        44           tot       1.00000           aqu        21           rhg       1.00000  
      45  rtu0450                450    1775.92561      41.11227     -82.78395     262.80821        45     s41100n82800w         0         0         0         2           sdc        45           tot       1.00000           aqu        22           rhg       1.00000  
      46  rtu0460                460     383.64100      41.08784     -82.73655     262.71851        46     s41100n82700w         0         0         0         2           sdc        46           tot       1.00000           aqu        23           rhg       1.00000  
      47  rtu0470                470    1713.52891      41.16977     -82.79150     247.22525        47     s41200n82800w         0         0         0         2           sdc        47           tot       1.00000           aqu        19           rhg       1.00000  
      48  rtu0480                480     687.13110      41.02151     -82.58352     316.67227        48     s41000n82600w         0         0         0         2           sdc        48           tot       1.00000           aqu        27           rhg       1.00000  
      49  rtu0490                490     181.23727      41.07419     -82.63988     280.31115        49     s41100n82600w         0         0         0         2           sdc        49           tot       1.00000           aqu        24           rhg       1.00000  
      50  rtu0500                500      89.92575      41.00254     -82.56797     319.12543        50     s41000n82600w         0         0         0         2           sdc        50           tot       1.00000           aqu        27           rhg       1.00000  
      51  rtu0510                510     170.75463      41.09287     -82.81185     270.95161        51     s41100n82800w         0         0         0         2           sdc        51           tot       1.00000           aqu        22           rhg       1.00000  
      52  rtu0520                520     374.36531      40.99435     -82.70781     291.22118        52     s41000n82700w         0         0         0         2           sdc        52           tot       1.00000           aqu        26           rhg       1.00000  
      53  rtu0530                530     192.41280      40.98844     -82.65958     309.58983        53     s41000n82700w         0         0         0         2           sdc        53           tot       1.00000           aqu        27           rhg       1.00000  
      54  rtu0540                540     314.47938      41.07539     -82.74084     268.02348        54     s41100n82700w         0         0         0         2           sdc        54           tot       1.00000           aqu        23           rhg       1.00000  
      55  rtu0550                550    2477.97232      40.96012     -82.73411     305.45064        55     s41000n82700w         0         0         0         2           sdc        55           tot       1.00000           aqu        26           rhg       1.00000  
      56  rtu0560                560     951.96133      40.96349     -82.70024     314.01140        56     s41000n82700w         0         0         0         2           sdc        56           tot       1.00000           aqu        26           rhg       1.00000  
      57  rtu0570                570     680.49284      40.96446     -82.66448     324.40068        57     s41000n82700w         0         0         0         2           sdc        57           tot       1.00000           aqu        27           rhg       1.00000  
      58  rtu0580                580     796.09996      40.97091     -82.64068     323.32465        58     s41000n82600w         0         0         0         2           sdc        58           tot       1.00000           aqu        27           rhg       1.00000  
      59  rtu0590                590     565.52645      40.98004     -82.68454     308.90512        59     s41000n82700w         0         0         0         2           sdc        59           tot       1.00000           aqu        26           rhg       1.00000  
      60  rtu0600                600     836.77143      40.98730     -82.59033     323.10433        60     s41000n82600w         0         0         0         2           sdc        60           tot       1.00000           aqu        27           rhg       1.00000  
      61  rtu0610                610     848.36418      40.98961     -82.61383     321.16638        61     s41000n82600w         0         0         0         2           sdc        61           tot       1.00000           aqu        27           rhg       1.00000  
      62  rtu0620                620     607.76995      40.98354     -82.56413     334.06877        62     s41000n82600w         0         0         0         2           sdc        62           tot       1.00000           aqu        27           rhg       1.00000  
      63  rtu0630                630     887.63499      40.99233     -82.54749     331.86723        63     s41000n82600w         0         0         0         2           sdc        63           tot       1.00000           aqu        27           rhg       1.00000  
      64  rtu0640                640     762.40202      41.00047     -82.72037     285.76707        64     s41000n82700w         0         0         0         2           sdc        64           tot       1.00000           aqu        26           rhg       1.00000  
      65  rtu0650                650     808.93692      41.00707     -82.68910     290.04632        65     s41000n82700w         0         0         0         2           sdc        65           tot       1.00000           aqu        26           rhg       1.00000  
      66  rtu0660                660     651.48862      41.03569     -82.71293     284.61590        66     s41000n82700w         0         0         0         2           sdc        66           tot       1.00000           aqu        26           rhg       1.00000  
      67  rtu0670                670    1320.63457      41.04322     -82.62645     299.10155        67     s41000n82600w         0         0         0         2           sdc        67           tot       1.00000           aqu        25           rhg       1.00000  
      68  rtu0680                680    1416.15554      41.05482     -82.60011     304.03599        68     s41100n82600w         0         0         0         2           sdc        68           tot       1.00000           aqu        24           rhg       1.00000  
      69  rtu0690                690     580.07699      41.05304     -82.74222     281.52554        69     s41100n82700w         0         0         0         2           sdc        69           tot       1.00000           aqu        23           rhg       1.00000  
      70  rtu0700                700     528.58761      41.06023     -82.68142     283.78307        70     s41100n82700w         0         0         0         2           sdc        70           tot       1.00000           aqu        20           rhg       1.00000  
      71  rtu0710                710     532.79705      41.05945     -82.76341     280.88666        71     s41100n82800w         0         0         0         2           sdc        71           tot       1.00000           aqu        23           rhg       1.00000  
      72  rtu0720                720     900.35274      41.07262     -82.58750     299.36604        72     s41100n82600w         0         0         0         2           sdc        72           tot       1.00000           aqu        24           rhg       1.00000  
      73  rtu0730                730     672.69977      41.06272     -82.72061     277.51697        73     s41100n82700w         0         0         0         2           sdc        73           tot       1.00000           aqu        23           rhg       1.00000  
      74  rtu0740                740     690.23045      41.07063     -82.79920     281.13367        74     s41100n82800w         0         0         0         2           sdc        74           tot       1.00000           aqu        22           rhg       1.00000  
      75  rtu0750                750    1080.85243      41.08080     -82.70463     271.41565        75     s41100n82700w         0         0         0         2           sdc        75           tot       1.00000           aqu        23           rhg       1.00000  
      76  rtu0760                760     777.49643      41.07895     -82.84180     282.74733        76     s41100n82800w         0         0         0         2           sdc        76           tot       1.00000           aqu        22           rhg       1.00000  
      77  rtu0770                770    1441.63575      41.08532     -82.76721     269.61531        77     s41100n82800w         0         0         0         2           sdc        77           tot       1.00000           aqu        23           rhg       1.00000  
      78  rtu0780                780     550.50654      41.07512     -82.81887     282.32075        78     s41100n82800w         0         0         0         2           sdc        78           tot       1.00000           aqu        22           rhg       1.00000  
      79  rtu0790                790     662.39593      41.08828     -82.67705     270.36556        79     s41100n82700w         0         0         0         2           sdc        79           tot       1.00000           aqu        20           rhg       1.00000  
      80  rtu0800                800    2852.06197      41.09115     -82.56357     298.26971        80     s41100n82600w         0         0         0         2           sdc        80           tot       1.00000           aqu        10           rhg       1.00000  
      81  rtu0810                810    1074.27377      41.09642     -82.84922     278.68731        81     s41100n82800w         0         0         0         2           sdc        81           tot       1.00000           aqu        21           rhg       1.00000  
      82  rtu0820                820    1245.26681      41.11230     -82.56884     293.34712        82     s41100n82600w         0         0         0         2           sdc        82           tot       1.00000           aqu        10           rhg       1.00000  
      83  rtu0830                830    1553.46554      41.10846     -82.87644     278.24323        83     s41100n82900w         0         0         0         2           sdc        83           tot       1.00000           aqu        21           rhg       1.00000  
      84  rtu0840                840     599.20950      41.10717     -82.68986     260.01013        84     s41100n82700w         0         0         0         2           sdc        84           tot       1.00000           aqu        20           rhg       1.00000  
      85  rtu0850                850     579.07119      41.12291     -82.60384     278.98109        85     s41100n82600w         0         0         0         2           sdc        85           tot       1.00000           aqu        10           rhg       1.00000  
      86  rtu0860                860    1147.02646      41.12803     -82.64216     264.56775        86     s41100n82600w         0         0         0         2           sdc        86           tot       1.00000           aqu        10           rhg       1.00000  
      87  rtu0870                870    1116.43531      41.13984     -82.59457     276.55727        87     s41100n82600w         0         0         0         2           sdc        87           tot       1.00000           aqu        10           rhg       1.00000  
      88  rtu0880                880     630.43392      41.13429     -82.82373     262.51240        88     s41100n82800w         0         0         0         2           sdc        88           tot       1.00000           aqu        19           rhg       1.00000  
      89  rtu0890                890     830.84095      41.13871     -82.84262     263.78672        89     s41100n82800w         0         0         0         2           sdc        89           tot       1.00000           aqu        19           rhg       1.00000  
      90  rtu0900                900    2871.09762      41.15570     -82.57550     277.27123        90     s41200n82600w         0         0         0         2           sdc        90           tot       1.00000           aqu        14           rhg       1.00000  
      91  rtu0910                910    1272.43079      41.14227     -82.75017     251.43438        91     s41100n82800w         0         0         0         2           sdc        91           tot       1.00000           aqu        17           rhg       1.00000  
      92  rtu0920                920    2300.58688      41.15940     -82.84780     258.33991        92     s41200n82800w         0         0         0         2           sdc        92           tot       1.00000           aqu        18           rhg       1.00000  
      93  rtu0930                930     517.54618      41.15241     -82.68892     246.08515        93     s41200n82700w         0         0         0         2           sdc        93           tot       1.00000           aqu        16           rhg       1.00000  
      94  rtu0940                940    1354.31762      41.18160     -82.55654     275.44136        94     s41200n82600w         0         0         0         2           sdc        94           tot       1.00000           aqu        14           rhg       1.00000  
      95  rtu0950                950     800.47332      41.16754     -82.67767     240.78665        95     s41200n82700w         0         0         0         2           sdc        95           tot       1.00000           aqu        16           rhg       1.00000  
      96  rtu0960                960     678.41419      41.16940     -82.73378     241.29399        96     s41200n82700w         0         0         0         2           sdc        96           tot       1.00000           aqu        17           rhg       1.00000  
      97  rtu0970                970     650.52007      41.17943     -82.59071     266.62500        97     s41200n82600w         0         0         0         2           sdc        97           tot       1.00000           aqu        14           rhg       1.00000  
      98  rtu0980                980    2465.86550      41.20655     -82.56892     261.17547        98     s41200n82600w         0         0         0         2           sdc        98           tot       1.00000           aqu        11           rhg       1.00000  
      99  rtu0990                990     603.42640      41.19057     -82.58953     261.18403        99     s41200n82600w         0         0         0         2           sdc        99           tot       1.00000           aqu        14           rhg       1.00000  
     100  rtu1000               1000     639.47120      41.19153     -82.82479     249.09889       100     s41200n82800w         0         0         0         2           sdc       100           tot       1.00000           aqu        18           rhg       1.00000  
     101  rtu1010               1010    2786.03694      41.22382     -82.55616     258.53622       101     s41200n82600w         0         0         0         2           sdc       101           tot       1.00000           aqu         8           rhg       1.00000  
     102  rtu1020               1020    1949.80939      41.22681     -82.81729     242.62095       102     s41200n82800w         0         0         0         2           sdc       102           tot       1.00000           aqu         6           rhg       1.00000  
     103  rtu1030               1030    1775.21783      41.23881     -82.73587     227.72824       103     s41200n82700w         0         0         0         2           sdc       103           tot       1.00000           aqu         7           rhg       1.00000  
     104  rtu1040               1040    1152.25661      41.23308     -82.78658     238.35084       104     s41200n82800w         0         0         0         2           sdc       104           tot       1.00000           aqu         6           rhg       1.00000  
     105  rtu1050               1050    2189.69583      41.24524     -82.52899     258.76644       105     s41200n82500w         0         0         0         2           sdc       105           tot       1.00000           aqu         4           rhg       1.00000  
     106  rtu1060               1060     819.65797      41.25635     -82.66374     212.69000       106     s41300n82700w         0         0         0         2           sdc       106           tot       1.00000           aqu         3           rhg       1.00000  
     107  rtu1070               1070     692.96473      41.25534     -82.57935     229.04046       107     s41300n82600w         0         0         0         2           sdc       107           tot       1.00000           aqu         4           rhg       1.00000  
     108  rtu1080               1080    1100.16374      41.25927     -82.61578     212.49972       108     s41300n82600w         0         0         0         2           sdc       108           tot       1.00000           aqu         4           rhg       1.00000  
     109  rtu1090               1090     595.20866      41.27794     -82.71026     217.93292       109     s41300n82700w         0         0         0         2           sdc       109           tot       1.00000           aqu         3           rhg       1.00000  
