rout_unit.ele: written by SWAT+ editor v2.3.3 on 2024-02-19 12:29 for SWAT+ rev.60.5.7
      id  name                   obj_typ    obj_id          frac               dlr  
       1  hru0001                    hru         1     1.2541E-1                 0  
       2  hru0002                    hru         2     8.7983E-2                 0  
       3  hru0003                    hru         3     1.3212E-1                 0  
       4  hru0004                    hru         4     1.8998E-2                 0  
       5  hru0005                    hru         5     2.4107E-1                 0  
       6  hru0006                    hru         6     3.5064E-2                 0  
       7  hru0007                    hru         7     5.0078E-2                 0  
       8  hru0008                    hru         8     4.1630E-2                 0  
       9  hru0009                    hru         9     1.7441E-2                 0  
      10  hru0010                    hru        10     3.4006E-2                 0  
      11  hru0011                    hru        11     1.4623E-2                 0  
      12  hru0012                    hru        12     2.0231E-2                 0  
      13  hru0013                    hru        13     9.0828E-3                 0  
      14  hru0014                    hru        14     1.8562E-2                 0  
      15  hru0015                    hru        15     6.2800E-2                 0  
      16  hru0016                    hru        16     6.2950E-2                 0  
      17  hru0017                    hru        17     2.6250E-2                 0  
      18  hru0018                    hru        18     7.3866E-3                 0  
      19  hru0019                    hru        19     1.9851E-2                 0  
      20  hru0020                    hru        20     3.1726E-2                 0  
      21  hru0021                    hru        21     1.8168E-1                 0  
      22  hru0022                    hru        22     3.9151E-2                 0  
      23  hru0023                    hru        23     7.7457E-2                 0  
      24  hru0024                    hru        24     9.0471E-2                 0  
      25  hru0025                    hru        25     1.5440E-2                 0  
      26  hru0026                    hru        26     1.3767E-2                 0  
      27  hru0027                    hru        27     9.1222E-2                 0  
      28  hru0028                    hru        28     8.8683E-3                 0  
      29  hru0029                    hru        29     4.7166E-2                 0  
      30  hru0030                    hru        30     9.0471E-3                 0  
      31  hru0031                    hru        31     4.5879E-2                 0  
      32  hru0032                    hru        32     2.5568E-2                 0  
      33  hru0033                    hru        33     2.3291E-2                 0  
      34  hru0034                    hru        34     3.6942E-3                 0  
      35  hru0035                    hru        35     1.1259E-2                 0  
      36  hru0036                    hru        36     8.1625E-3                 0  
      37  hru0037                    hru        37     2.7091E-3                 0  
      38  hru0038                    hru        38     1.7979E-2                 0  
      39  hru0039                    hru        39     9.2883E-3                 0  
      40  hru0040                    hru        40     7.5644E-3                 0  
      41  hru0041                    hru        41     1.3370E-2                 0  
      42  hru0042                    hru        42     4.6442E-3                 0  
      43  hru0043                    hru        43     1.3612E-2                 0  
      44  hru0044                    hru        44     9.6021E-3                 0  
      45  hru0045                    hru        45     6.7777E-2                 0  
      46  hru0046                    hru        46     1.0130E-2                 0  
      47  hru0047                    hru        47     1.1361E-2                 0  
      48  hru0048                    hru        48     9.2152E-3                 0  
      49  hru0049                    hru        49     4.2559E-3                 0  
      50  hru0050                    hru        50     2.0787E-2                 0  
      51  hru0051                    hru        51     2.5578E-2                 0  
      52  hru0052                    hru        52     9.2851E-3                 0  
      53  hru0053                    hru        53     2.6559E-2                 0  
      54  hru0054                    hru        54     3.8692E-2                 0  
      55  hru0055                    hru        55     2.3224E-2                 0  
      56  hru0056                    hru        56     3.4906E-1                 0  
      57  hru0057                    hru        57     1.6330E-1                 0  
      58  hru0058                    hru        58     1.3583E-1                 0  
      59  hru0059                    hru        59     2.3545E-2                 0  
      60  hru0060                    hru        60     2.2440E-1                 0  
      61  hru0061                    hru        61     4.3883E-2                 0  
      62  hru0062                    hru        62     1.7862E-3                 0  
      63  hru0063                    hru        63     1.3259E-2                 0  
      64  hru0064                    hru        64     3.8685E-2                 0  
      65  hru0065                    hru        65     1.0268E-2                 0  
      66  hru0066                    hru        66     1.0952E-2                 0  
      67  hru0067                    hru        67     8.1044E-3                 0  
      68  hru0068                    hru        68     1.1155E-1                 0  
      69  hru0069                    hru        69     6.4745E-1                 0  
      70  hru0070                    hru        70     1.1654E-1                 0  
      71  hru0071                    hru        71     4.1395E-2                 0  
      72  hru0072                    hru        72     8.3632E-3                 0  
      73  hru0073                    hru        73     1.4545E-2                 0  
      74  hru0074                    hru        74     7.8759E-2                 0  
      75  hru0075                    hru        75     7.5632E-3                 0  
      76  hru0076                    hru        76     8.7995E-3                 0  
      77  hru0077                    hru        77     6.2330E-1                 0  
      78  hru0078                    hru        78     2.0814E-2                 0  
      79  hru0079                    hru        79     2.0792E-1                 0  
      80  hru0080                    hru        80     2.9939E-2                 0  
      81  hru0081                    hru        81     4.3571E-2                 0  
      82  hru0082                    hru        82     7.3276E-1                 0  
      83  hru0083                    hru        83     6.2802E-2                 0  
      84  hru0084                    hru        84     2.3825E-2                 0  
      85  hru0085                    hru        85     2.8680E-2                 0  
      86  hru0086                    hru        86     5.9301E-3                 0  
      87  hru0087                    hru        87     8.0512E-3                 0  
      88  hru0088                    hru        88     2.5797E-2                 0  
      89  hru0089                    hru        89     6.3932E-3                 0  
      90  hru0090                    hru        90     1.3832E-2                 0  
      91  hru0091                    hru        91     8.4097E-3                 0  
      92  hru0092                    hru        92     1.8104E-2                 0  
      93  hru0093                    hru        93     1.4011E-2                 0  
      94  hru0094                    hru        94     7.9019E-3                 0  
      95  hru0095                    hru        95     1.3710E-1                 0  
      96  hru0096                    hru        96     5.4235E-2                 0  
      97  hru0097                    hru        97     1.9532E-2                 0  
      98  hru0098                    hru        98     6.8647E-2                 0  
      99  hru0099                    hru        99     2.4440E-1                 0  
     100  hru0100                    hru       100     7.3918E-2                 0  
     101  hru0101                    hru       101     2.2187E-2                 0  
     102  hru0102                    hru       102     1.4311E-1                 0  
     103  hru0103                    hru       103     1.0797E-2                 0  
     104  hru0104                    hru       104     7.9156E-2                 0  
     105  hru0105                    hru       105     4.5109E-2                 0  
     106  hru0106                    hru       106     5.1542E-2                 0  
     107  hru0107                    hru       107     4.4394E-2                 0  
     108  hru0108                    hru       108     9.9322E-3                 0  
     109  hru0109                    hru       109     4.1477E-3                 0  
     110  hru0110                    hru       110     9.5183E-3                 0  
     111  hru0111                    hru       111     3.3373E-3                 0  
     112  hru0112                    hru       112     4.4645E-2                 0  
     113  hru0113                    hru       113     8.6784E-3                 0  
     114  hru0114                    hru       114     1.4079E-2                 0  
     115  hru0115                    hru       115     4.0490E-2                 0  
     116  hru0116                    hru       116     5.6800E-3                 0  
     117  hru0117                    hru       117     4.9507E-3                 0  
     118  hru0118                    hru       118     1.0622E-2                 0  
     119  hru0119                    hru       119     6.6103E-2                 0  
     120  hru0120                    hru       120     4.0684E-3                 0  
     121  hru0121                    hru       121     5.0761E-3                 0  
     122  hru0122                    hru       122     1.6130E-2                 0  
     123  hru0123                    hru       123     4.2882E-3                 0  
     124  hru0124                    hru       124     1.1251E-2                 0  
     125  hru0125                    hru       125     1.2476E-1                 0  
     126  hru0126                    hru       126     8.0218E-3                 0  
     127  hru0127                    hru       127     3.5229E-2                 0  
     128  hru0128                    hru       128     1.2909E-2                 0  
     129  hru0129                    hru       129     1.0352E-2                 0  
     130  hru0130                    hru       130     3.3830E-2                 0  
     131  hru0131                    hru       131     1.8213E-2                 0  
     132  hru0132                    hru       132     1.9011E-1                 0  
     133  hru0133                    hru       133     8.5747E-3                 0  
     134  hru0134                    hru       134     1.1430E-2                 0  
     135  hru0135                    hru       135     1.4814E-1                 0  
     136  hru0136                    hru       136     4.9720E-3                 0  
     137  hru0137                    hru       137     3.4714E-2                 0  
     138  hru0138                    hru       138     1.2291E-2                 0  
     139  hru0139                    hru       139     7.2738E-3                 0  
     140  hru0140                    hru       140     4.7092E-2                 0  
     141  hru0141                    hru       141     3.7802E-3                 0  
     142  hru0142                    hru       142     1.8684E-2                 0  
     143  hru0143                    hru       143     3.0872E-3                 0  
     144  hru0144                    hru       144     7.1334E-3                 0  
     145  hru0145                    hru       145     6.3353E-3                 0  
     146  hru0146                    hru       146     7.9860E-2                 0  
     147  hru0147                    hru       147     6.8743E-2                 0  
     148  hru0148                    hru       148     1.4296E-2                 0  
     149  hru0149                    hru       149     9.8449E-3                 0  
     150  hru0150                    hru       150     2.8348E-2                 0  
     151  hru0151                    hru       151     1.9421E-2                 0  
     152  hru0152                    hru       152     6.4695E-3                 0  
     153  hru0153                    hru       153     6.9464E-3                 0  
     154  hru0154                    hru       154     1.5436E-2                 0  
     155  hru0155                    hru       155     9.3865E-3                 0  
     156  hru0156                    hru       156     5.4008E-3                 0  
     157  hru0157                    hru       157     2.7464E-2                 0  
     158  hru0158                    hru       158     7.8064E-3                 0  
     159  hru0159                    hru       159     2.8537E-3                 0  
     160  hru0160                    hru       160     9.4691E-3                 0  
     161  hru0161                    hru       161     4.1626E-3                 0  
     162  hru0162                    hru       162     1.6320E-2                 0  
     163  hru0163                    hru       163     8.5068E-2                 0  
     164  hru0164                    hru       164     6.1502E-2                 0  
     165  hru0165                    hru       165     1.3153E-1                 0  
     166  hru0166                    hru       166     2.0189E-2                 0  
     167  hru0167                    hru       167     2.4021E-2                 0  
     168  hru0168                    hru       168     5.1673E-2                 0  
     169  hru0169                    hru       169     1.5787E-2                 0  
     170  hru0170                    hru       170     3.9978E-3                 0  
     171  hru0171                    hru       171     2.5163E-3                 0  
     172  hru0172                    hru       172     3.2453E-3                 0  
     173  hru0173                    hru       173     1.1300E-2                 0  
     174  hru0174                    hru       174     6.7611E-3                 0  
     175  hru0175                    hru       175     1.0888E-2                 0  
     176  hru0176                    hru       176     2.0554E-2                 0  
     177  hru0177                    hru       177     1.4769E-2                 0  
     178  hru0178                    hru       178     3.2453E-3                 0  
     179  hru0179                    hru       179     4.2800E-3                 0  
     180  hru0180                    hru       180     2.2106E-3                 0  
     181  hru0181                    hru       181     2.7145E-2                 0  
     182  hru0182                    hru       182     1.8719E-2                 0  
     183  hru0183                    hru       183     7.6261E-3                 0  
     184  hru0184                    hru       184     1.3053E-2                 0  
     185  hru0185                    hru       185     1.1451E-2                 0  
     186  hru0186                    hru       186     8.8811E-3                 0  
     187  hru0187                    hru       187     2.7133E-3                 0  
     188  hru0188                    hru       188     2.7444E-2                 0  
     189  hru0189                    hru       189     4.2573E-3                 0  
     190  hru0190                    hru       190     1.2830E-2                 0  
     191  hru0191                    hru       191     1.6842E-3                 0  
     192  hru0192                    hru       192     4.5029E-3                 0  
     193  hru0193                    hru       193     5.0643E-3                 0  
     194  hru0194                    hru       194     3.4737E-3                 0  
     195  hru0195                    hru       195     3.4444E-2                 0  
     196  hru0196                    hru       196     1.0947E-2                 0  
     197  hru0197                    hru       197     3.3001E-3                 0  
     198  hru0198                    hru       198     7.1657E-3                 0  
     199  hru0199                    hru       199     4.1351E-3                 0  
     200  hru0200                    hru       200     2.9113E-3                 0  
     201  hru0201                    hru       201     1.2542E-2                 0  
     202  hru0202                    hru       202     3.2877E-2                 0  
     203  hru0203                    hru       203     1.5992E-2                 0  
     204  hru0204                    hru       204     3.0836E-3                 0  
     205  hru0205                    hru       205     3.5033E-3                 0  
     206  hru0206                    hru       206     2.8619E-2                 0  
     207  hru0207                    hru       207     5.8191E-3                 0  
     208  hru0208                    hru       208     2.6892E-2                 0  
     209  hru0209                    hru       209     1.4293E-2                 0  
     210  hru0210                    hru       210     3.9532E-3                 0  
     211  hru0211                    hru       211     5.4893E-3                 0  
     212  hru0212                    hru       212     1.0407E-2                 0  
     213  hru0213                    hru       213     4.2162E-3                 0  
     214  hru0214                    hru       214     2.4637E-2                 0  
     215  hru0215                    hru       215     3.8876E-2                 0  
     216  hru0216                    hru       216     3.6146E-2                 0  
     217  hru0217                    hru       217     7.1132E-3                 0  
     218  hru0218                    hru       218     1.5864E-2                 0  
     219  hru0219                    hru       219     1.8815E-2                 0  
     220  hru0220                    hru       220     9.2306E-2                 0  
     221  hru0221                    hru       221     3.0343E-2                 0  
     222  hru0222                    hru       222     2.4519E-2                 0  
     223  hru0223                    hru       223     2.3550E-2                 0  
     224  hru0224                    hru       224     9.4964E-2                 0  
     225  hru0225                    hru       225     4.1080E-1                 0  
     226  hru0226                    hru       226     3.5349E-3                 0  
     227  hru0227                    hru       227     1.5282E-2                 0  
     228  hru0228                    hru       228     2.8279E-3                 0  
     229  hru0229                    hru       229     1.5282E-2                 0  
     230  hru0230                    hru       230     2.8823E-3                 0  
     231  hru0231                    hru       231     8.6904E-2                 0  
     232  hru0232                    hru       232     1.6587E-2                 0  
     233  hru0233                    hru       233     4.2284E-2                 0  
     234  hru0234                    hru       234     4.7341E-3                 0  
     235  hru0235                    hru       235     7.2804E-3                 0  
     236  hru0236                    hru       236     6.5416E-2                 0  
     237  hru0237                    hru       237     2.3455E-2                 0  
     238  hru0238                    hru       238     2.4944E-2                 0  
     239  hru0239                    hru       239     1.8667E-2                 0  
     240  hru0240                    hru       240     1.8506E-2                 0  
     241  hru0241                    hru       241     1.3960E-2                 0  
     242  hru0242                    hru       242     1.6935E-2                 0  
     243  hru0243                    hru       243     1.0158E-2                 0  
     244  hru0244                    hru       244     2.5298E-2                 0  
     245  hru0245                    hru       245     4.8588E-3                 0  
     246  hru0246                    hru       246     5.7918E-3                 0  
     247  hru0247                    hru       247     8.4622E-3                 0  
     248  hru0248                    hru       248     8.4248E-2                 0  
     249  hru0249                    hru       249     5.7386E-2                 0  
     250  hru0250                    hru       250     7.8097E-2                 0  
     251  hru0251                    hru       251     7.9193E-3                 0  
     252  hru0252                    hru       252     7.3101E-3                 0  
     253  hru0253                    hru       253     2.4889E-3                 0  
     254  hru0254                    hru       254     2.0520E-2                 0  
     255  hru0255                    hru       255     2.6682E-2                 0  
     256  hru0256                    hru       256     4.4035E-3                 0  
     257  hru0257                    hru       257     9.3987E-3                 0  
     258  hru0258                    hru       258     8.0759E-3                 0  
     259  hru0259                    hru       259     2.8840E-2                 0  
     260  hru0260                    hru       260     1.8466E-2                 0  
     261  hru0261                    hru       261     1.0302E-1                 0  
     262  hru0262                    hru       262     4.7284E-3                 0  
     263  hru0263                    hru       263     9.4568E-3                 0  
     264  hru0264                    hru       264     9.1414E-2                 0  
     265  hru0265                    hru       265     4.1227E-3                 0  
     266  hru0266                    hru       266     1.4050E-1                 0  
     267  hru0267                    hru       267     1.0615E-1                 0  
     268  hru0268                    hru       268     5.6314E-3                 0  
     269  hru0269                    hru       269     1.1263E-2                 0  
     270  hru0270                    hru       270     4.6184E-2                 0  
     271  hru0271                    hru       271     3.3462E-2                 0  
     272  hru0272                    hru       272     6.6095E-2                 0  
     273  hru0273                    hru       273     1.3551E-2                 0  
     274  hru0274                    hru       274     4.1482E-3                 0  
     275  hru0275                    hru       275     5.9982E-2                 0  
     276  hru0276                    hru       276     2.7770E-3                 0  
     277  hru0277                    hru       277     3.5545E-2                 0  
     278  hru0278                    hru       278     3.5545E-2                 0  
     279  hru0279                    hru       279     3.2724E-1                 0  
     280  hru0280                    hru       280     5.1359E-2                 0  
     281  hru0281                    hru       281     6.0564E-2                 0  
     282  hru0282                    hru       282     5.8022E-3                 0  
     283  hru0283                    hru       283     6.2269E-2                 0  
     284  hru0284                    hru       284     1.0907E-2                 0  
     285  hru0285                    hru       285     3.0964E-2                 0  
     286  hru0286                    hru       286     2.5705E-2                 0  
     287  hru0287                    hru       287     1.1221E-2                 0  
     288  hru0288                    hru       288     7.2430E-2                 0  
     289  hru0289                    hru       289     5.4884E-3                 0  
     290  hru0290                    hru       290     2.3627E-2                 0  
     291  hru0291                    hru       291     2.0793E-2                 0  
     292  hru0292                    hru       292     9.0276E-2                 0  
     293  hru0293                    hru       293     2.7877E-2                 0  
     294  hru0294                    hru       294     3.1508E-1                 0  
     295  hru0295                    hru       295     1.2935E-2                 0  
     296  hru0296                    hru       296     2.0347E-2                 0  
     297  hru0297                    hru       297     3.7559E-2                 0  
     298  hru0298                    hru       298     3.3356E-3                 0  
     299  hru0299                    hru       299     1.4825E-2                 0  
     300  hru0300                    hru       300     8.7508E-3                 0  
     301  hru0301                    hru       301     3.0062E-3                 0  
     302  hru0302                    hru       302     1.1277E-2                 0  
     303  hru0303                    hru       303     1.6060E-3                 0  
     304  hru0304                    hru       304     3.6307E-3                 0  
     305  hru0305                    hru       305     1.2951E-2                 0  
     306  hru0306                    hru       306     9.3136E-3                 0  
     307  hru0307                    hru       307     7.7285E-3                 0  
     308  hru0308                    hru       308     7.1853E-3                 0  
     309  hru0309                    hru       309     2.1425E-2                 0  
     310  hru0310                    hru       310     1.9803E-3                 0  
     311  hru0311                    hru       311     2.4334E-2                 0  
     312  hru0312                    hru       312     1.7815E-2                 0  
     313  hru0313                    hru       313     7.9829E-3                 0  
     314  hru0314                    hru       314     2.2622E-3                 0  
     315  hru0315                    hru       315     3.5823E-3                 0  
     316  hru0316                    hru       316     2.1211E-3                 0  
     317  hru0317                    hru       317     1.7115E-2                 0  
     318  hru0318                    hru       318     4.5205E-3                 0  
     319  hru0319                    hru       319     9.8477E-3                 0  
     320  hru0320                    hru       320     1.7199E-2                 0  
     321  hru0321                    hru       321     6.5373E-3                 0  
     322  hru0322                    hru       322     5.0003E-3                 0  
     323  hru0323                    hru       323     1.3840E-3                 0  
     324  hru0324                    hru       324     6.8194E-1                 0  
     325  hru0325                    hru       325     2.3001E-2                 0  
     326  hru0326                    hru       326     2.4200E-2                 0  
     327  hru0327                    hru       327     2.1881E-2                 0  
     328  hru0328                    hru       328     2.4898E-1                 0  
     329  hru0329                    hru       329     4.2180E-1                 0  
     330  hru0330                    hru       330     1.7805E-1                 0  
     331  hru0331                    hru       331     2.9844E-2                 0  
     332  hru0332                    hru       332     1.2254E-1                 0  
     333  hru0333                    hru       333     1.5081E-1                 0  
     334  hru0334                    hru       334     4.2000E-2                 0  
     335  hru0335                    hru       335     2.4054E-2                 0  
     336  hru0336                    hru       336     3.4990E-2                 0  
     337  hru0337                    hru       337     2.7665E-3                 0  
     338  hru0338                    hru       338     2.6765E-2                 0  
     339  hru0339                    hru       339     7.0343E-3                 0  
     340  hru0340                    hru       340     1.3297E-2                 0  
     341  hru0341                    hru       341     4.5037E-3                 0  
     342  hru0342                    hru       342     2.8523E-2                 0  
     343  hru0343                    hru       343     6.1450E-2                 0  
     344  hru0344                    hru       344     1.1716E-1                 0  
     345  hru0345                    hru       345     7.7161E-2                 0  
     346  hru0346                    hru       346     1.5023E-1                 0  
     347  hru0347                    hru       347     3.7582E-2                 0  
     348  hru0348                    hru       348     4.0007E-1                 0  
     349  hru0349                    hru       349     2.1659E-2                 0  
     350  hru0350                    hru       350     5.3740E-2                 0  