weather-wgn.cli: written by SWAT+ editor v2.3.3 on 2024-01-30 23:01 for SWAT+ rev.60.5.7
OHFREDERICKTOWNSWPL            40.48000     -82.53000     326.10001        10  
 tmp_max_ave   tmp_min_ave    tmp_max_sd    tmp_min_sd       pcp_ave        pcp_sd      pcp_skew       wet_dry       wet_wet      pcp_days       pcp_hhr       slr_ave       dew_ave       wnd_ave  
     0.87000      -9.61000       6.72000       7.66000      71.80000       8.90000       2.32000       0.31000       0.46000      11.31000       5.30000       5.32000      -5.39000       5.60000  
     2.49000      -8.74000       6.34000       7.49000      54.60000       7.90000       2.25000       0.29000       0.43000       9.78000       9.10000       8.25000      -5.11000       5.40000  
     8.53000      -3.32000       7.01000       5.75000      77.40000       7.60000       2.43000       0.34000       0.51000      12.70000      10.40000      12.57000      -1.94000       5.56000  
    15.44000       2.26000       6.62000       5.40000      90.00000       8.60000       0.97000       0.33000       0.52000      12.22000      10.70000      15.21000       3.61000       5.28000  
    22.01000       7.73000       5.47000       5.01000      94.50000       9.70000       1.21000       0.27000       0.55000      11.63000      18.50000      20.03000       9.17000       4.46000  
    26.82000      12.69000       4.18000       4.21000     102.70000      11.20000       1.31000       0.28000       0.47000      10.37000      29.70000      23.38000      14.28000       4.09000  
    28.99000      14.69000       3.07000       3.67000      93.40000      10.40000       0.40000       0.28000       0.43000      10.21000      33.00000      23.13000      16.50000       3.60000  
    28.34000      13.48000       3.24000       4.02000      88.00000      11.70000       0.90000       0.25000       0.40000       9.12000      30.50000      20.28000      16.22000       3.36000  
    24.72000       9.56000       4.73000       5.23000      78.60000      12.20000       3.21000       0.23000       0.45000       8.85000      18.30000      15.71000      12.33000       3.76000  
    18.24000       3.43000       5.96000       5.37000      57.70000       8.10000       1.60000       0.22000       0.44000       8.74000       8.40000      11.90000       6.22000       4.16000  
    10.06000      -1.29000       6.63000       5.63000      72.90000       8.10000       1.29000       0.31000       0.50000      11.48000      11.90000       6.66000       0.28000       5.19000  
     3.29000      -6.59000       6.42000       6.82000      69.30000       7.10000       0.82000       0.31000       0.50000      11.86000       7.10000       5.07000      -4.28000       5.27000  
OHSANDUSKYWBCITY               41.45000     -82.72000     185.89999        10  
 tmp_max_ave   tmp_min_ave    tmp_max_sd    tmp_min_sd       pcp_ave        pcp_sd      pcp_skew       wet_dry       wet_wet      pcp_days       pcp_hhr       slr_ave       dew_ave       wnd_ave  
     0.78000      -7.01000       6.53000       6.43000      53.20000       6.30000       2.19000       0.33000       0.50000      12.33000       5.60000       5.15000      -5.56000       5.77000  
     1.84000      -6.23000       6.24000       5.89000      48.60000       6.30000       2.53000       0.33000       0.48000      11.26000       9.70000       8.30000      -5.77000       5.58000  
     6.94000      -1.52000       6.95000       4.98000      68.40000       6.60000       1.13000       0.32000       0.51000      12.25000       8.40000      12.70000      -2.57000       5.70000  
    14.01000       4.30000       7.02000       4.53000      76.40000       7.90000       1.76000       0.33000       0.54000      12.53000      10.70000      14.66000       2.78000       5.41000  
    20.41000      10.36000       6.01000       4.18000      87.60000       9.70000       2.55000       0.29000       0.56000      12.32000      18.80000      20.11000       8.33000       4.70000  
    25.99000      15.95000       4.90000       3.57000     107.40000      13.20000       2.99000       0.32000       0.48000      11.43000      27.20000      23.00000      13.76000       4.29000  
    28.46000      18.44000       3.72000       2.89000      93.10000      16.80000       3.88000       0.26000       0.38000       9.16000      28.40000      23.21000      15.98000       3.89000  
    27.69000      17.72000       3.56000       2.96000      80.60000      11.40000       0.97000       0.21000       0.43000       8.35000      30.70000      20.20000      15.98000       3.65000  
    23.81000      13.59000       5.01000       4.32000      76.40000      12.40000       2.70000       0.23000       0.45000       8.85000      14.70000      14.62000      12.09000       4.09000  
    17.54000       7.68000       5.82000       4.55000      48.90000       6.90000       1.32000       0.22000       0.44000       8.74000      10.40000      11.40000       6.20000       4.45000  
     9.67000       1.63000       6.23000       5.01000      62.80000       7.10000       1.55000       0.31000       0.52000      11.77000       6.90000       5.87000       0.21000       5.34000  
     3.11000      -4.11000       6.04000       5.74000      58.40000       6.30000       1.94000       0.32000       0.50000      12.10000       8.90000       4.57000      -4.66000       5.51000  
