object.cnt: written by SWAT+ editor v2.3.3 on 2024-01-16 14:17 for SWAT+ rev.60.5.7
name                   ls_area      tot_area       obj       hru      lhru       rtu       mfl       aqu       cha       res       rec      exco       dlr       can       pmp       out      lcha     aqu2d       hrd       wro  
Huron              90643.25271   90643.25271      2428      2182         0       109         0        28         0         0         0         0         0         0         0         0       109         0         0         0  
