time.sim: written by SWAT+ editor v2.3.3 on 2024-01-16 14:17 for SWAT+ rev.60.5.7
day_start  yrc_start   day_end   yrc_end      step  
       60       2018          120       2018          0 
