initial.aqu: written by SWAT+ editor v2.3.3 on 2024-01-16 14:18 for SWAT+ rev.60.5.7
name                       org_min              pest              path              hmet              salt  description       
initaqu1                   no_init              null              null              null              null  null              
