slr.cli: Solar radiation file names - file written by SWAT+ editor 2024-01-04 23:09:51.480075
filename
10solar.slr
11solar.slr
12solar.slr
1solar.slr
2solar.slr
3solar.slr
4solar.slr
5solar.slr
6solar.slr
7solar.slr
8solar.slr
9solar.slr
