aquifer.con: written by SWAT+ editor v2.3.3 on 2024-01-09 16:51 for SWAT+ rev.60.5.7
      id  name                gis_id          area           lat           lon          elev       aqu               wst       cst      ovfl      rule   out_tot       obj_typ    obj_id       hyd_typ          frac  
       1  aqu010                  10     688.59137      41.29985     -82.64009     204.80916         1     s41300n82600w         0         0         0         2           sdc         2           tot       1.00000           aqu        28           rhg       1.00000  
       2  aqu020                  20     240.37072      41.30085     -82.61453     179.13216         2     s41300n82600w         0         0         0         2           sdc         1           tot       1.00000           aqu        28           rhg       1.00000  
       3  aqu030                  30    2328.74176      41.27238     -82.67588     211.09454         3     s41300n82700w         0         0         0         2           sdc         3           tot       1.00000           aqu        28           rhg       1.00000  
       4  aqu040                  40    4466.82900      41.25383     -82.56671     242.67310         4     s41300n82600w         0         0         0         2           sdc        27           tot       1.00000           aqu        28           rhg       1.00000  
       5  aqu050                  50    1205.06471      41.25038     -82.64699     199.56387         5     s41300n82600w         0         0         0         2           sdc        13           tot       1.00000           aqu        28           rhg       1.00000  
       6  aqu060                  60    3844.65752      41.23615     -82.79008     239.15952         6     s41200n82800w         0         0         0         2           sdc        40           tot       1.00000           aqu        28           rhg       1.00000  
       7  aqu070                  70    3018.29423      41.24154     -82.71736     222.47044         7     s41200n82700w         0         0         0         2           sdc         6           tot       1.00000           aqu        28           rhg       1.00000  
       8  aqu080                  80    2786.03694      41.22382     -82.55616     266.50900         8     s41200n82600w         0         0         0         2           sdc       101           tot       1.00000           aqu        28           rhg       1.00000  
       9  aqu090                  90    1496.50014      41.21693     -82.75867     236.09235         9     s41200n82800w         0         0         0         2           sdc        37           tot       1.00000           aqu        28           rhg       1.00000  
      10  aqu100                 100   10441.97441      41.13530     -82.60780     273.54593        10     s41100n82600w         0         0         0         2           sdc        22           tot       1.00000           aqu        28           rhg       1.00000  
      11  aqu110                 110    2465.86550      41.20655     -82.56892     267.52917        11     s41200n82600w         0         0         0         2           sdc        98           tot       1.00000           aqu        28           rhg       1.00000  
      12  aqu120                 120      14.15567      41.22891     -82.64037     206.82430        12     s41200n82600w         0         0         0         2           sdc        26           tot       1.00000           aqu        28           rhg       1.00000  
      13  aqu130                 130       3.17385      41.22810     -82.64646     212.63095        13     s41200n82600w         0         0         0         2           sdc        14           tot       1.00000           aqu        28           rhg       1.00000  
      14  aqu140                 140    5938.22146      41.17161     -82.57847     277.73395        14     s41200n82600w         0         0         0         2           sdc        28           tot       1.00000           aqu        28           rhg       1.00000  
      15  aqu150                 150      43.40575      41.22112     -82.70128     213.28755        15     s41200n82700w         0         0         0         2           sdc         8           tot       1.00000           aqu        28           rhg       1.00000  
      16  aqu160                 160    3012.94488      41.16333     -82.69599     238.27080        16     s41200n82700w         0         0         0         2           sdc         9           tot       1.00000           aqu        28           rhg       1.00000  
      17  aqu170                 170    4887.02143      41.16975     -82.74385     242.28354        17     s41200n82700w         0         0         0         2           sdc        16           tot       1.00000           aqu        28           rhg       1.00000  
      18  aqu180                 180    3093.34908      41.16809     -82.83987     253.97340        18     s41200n82800w         0         0         0         2           sdc        39           tot       1.00000           aqu        28           rhg       1.00000  
      19  aqu190                 190    3174.80379      41.15460     -82.81129     254.54778        19     s41200n82800w         0         0         0         2           sdc        47           tot       1.00000           aqu        28           rhg       1.00000  
      20  aqu200                 200    4154.03341      41.09760     -82.66946     266.43985        20     s41100n82700w         0         0         0         2           sdc        12           tot       1.00000           aqu        28           rhg       1.00000  
      21  aqu210                 210    3035.11713      41.10621     -82.85784     277.79337        21     s41100n82900w         0         0         0         2           sdc        44           tot       1.00000           aqu        28           rhg       1.00000  
      22  aqu220                 220    3964.91366      41.09250     -82.80400     270.58905        22     s41100n82800w         0         0         0         2           sdc        45           tot       1.00000           aqu        28           rhg       1.00000  
      23  aqu230                 230    5935.21897      41.08076     -82.73753     268.29623        23     s41100n82700w         0         0         0         2           sdc        41           tot       1.00000           aqu        28           rhg       1.00000  
      24  aqu240                 240    2497.74556      41.06264     -82.59845     298.99142        24     s41100n82600w         0         0         0         2           sdc        49           tot       1.00000           aqu        28           rhg       1.00000  
      25  aqu250                 250    2267.82768      41.04465     -82.63653     293.82840        25     s41000n82600w         0         0         0         2           sdc        20           tot       1.00000           aqu        28           rhg       1.00000  
      26  aqu260                 260    7639.44239      40.98900     -82.71373     288.12015        26     s41000n82700w         0         0         0         2           sdc        31           tot       1.00000           aqu        28           rhg       1.00000  
      27  aqu270                 270    7998.95169      40.99499     -82.61484     320.38431        27     s41000n82600w         0         0         0         2           sdc        32           tot       1.00000           aqu        28           rhg       1.00000  
      28  aqu_deep002              2   90643.25271      41.13163     -82.68127     266.46171        28     s41100n82700w         0         0         0         0  
