chandeg.con: written by SWAT+ editor v2.3.3 on 2024-01-16 14:17 for SWAT+ rev.60.5.7
      id  name                gis_id          area           lat           lon          elev      lcha               wst       cst      ovfl      rule   out_tot       obj_typ    obj_id       hyd_typ          frac  
       1  cha001                   1   90643.09760      41.29907     -82.61017             0         1     s41300n82600w         0         0         0         0  
       2  cha002                   2   85936.05120      41.29362     -82.62493             0         2     s41300n82600w         0         0         0         1           sdc         1           tot       1.00000  
       3  cha003                   3   62392.96640      41.28779     -82.64072             0         3     s41300n82600w         0         0         0         1           sdc         2           tot       1.00000  
       4  cha004                   4   61341.28000      41.28687     -82.65935             0         4     s41300n82700w         0         0         0         1           sdc         3           tot       1.00000  
       5  cha005                   5   60175.02720      41.28465     -82.67542             0         5     s41300n82700w         0         0         0         1           sdc         4           tot       1.00000  
       6  cha006                   6   56219.57120      41.26066     -82.68893             0         6     s41300n82700w         0         0         0         1           sdc         5           tot       1.00000  
       7  cha007                   7   53683.93920      41.23314     -82.70222             0         7     s41200n82700w         0         0         0         1           sdc         6           tot       1.00000  
       8  cha008                   8   45436.62400      41.22129     -82.70192             0         8     s41200n82700w         0         0         0         1           sdc         7           tot       1.00000  
       9  cha009                   9   33506.16320      41.19990     -82.69735             0         9     s41200n82700w         0         0         0         1           sdc         8           tot       1.00000  
      10  cha010                  10   32259.20000      41.17663     -82.69603             0        10     s41200n82700w         0         0         0         1           sdc         9           tot       1.00000  
      11  cha011                  11   31616.56960      41.14951     -82.70325             0        11     s41100n82700w         0         0         0         1           sdc        10           tot       1.00000  
      12  cha012                  12   24558.00000      41.12728     -82.69439             0        12     s41100n82700w         0         0         0         1           sdc        11           tot       1.00000  
      13  cha013                  13   22854.49280      41.25940     -82.64155             0        13     s41300n82600w         0         0         0         1           sdc         2           tot       1.00000  
      14  cha014                  14   16383.36960      41.22802     -82.64535             0        14     s41200n82600w         0         0         0         1           sdc        13           tot       1.00000  
      15  cha015                  15   23552.99360      41.11958     -82.67631             0        15     s41100n82700w         0         0         0         1           sdc        12           tot       1.00000  
      16  cha016                  16   11887.05200      41.20132     -82.71380             0        16     s41200n82700w         0         0         0         1           sdc         8           tot       1.00000  
      17  cha017                  17   22287.46080      41.09433     -82.66421             0        17     s41100n82700w         0         0         0         1           sdc        15           tot       1.00000  
      18  cha018                  18   20436.55520      41.07338     -82.65597             0        18     s41100n82700w         0         0         0         1           sdc        17           tot       1.00000  
      19  cha019                  19    9496.68080      41.18326     -82.73865             0        19     s41200n82700w         0         0         0         1           sdc        16           tot       1.00000  
      20  cha020                  20   17906.22240      41.05968     -82.65707             0        20     s41100n82700w         0         0         0         1           sdc        18           tot       1.00000  
      21  cha021                  21   16060.67200      41.04511     -82.66189             0        21     s41000n82700w         0         0         0         1           sdc        20           tot       1.00000  
      22  cha022                  22   10441.97440      41.19430     -82.64121             0        22     s41200n82600w         0         0         0         1           sdc        14           tot       1.00000  
      23  cha023                  23    6371.74240      41.15903     -82.63657             0        23     s41200n82600w         0         0         0         1           sdc        22           tot       1.00000  
      24  cha024                  24    5215.85000      41.14684     -82.62979             0        24     s41100n82600w         0         0         0         1           sdc        23           tot       1.00000  
      25  cha025                  25    8027.88880      41.15697     -82.76789             0        25     s41200n82800w         0         0         0         1           sdc        19           tot       1.00000  
      26  cha026                  26    5266.05800      41.22927     -82.64193             0        26     s41200n82600w         0         0         0         1           sdc        13           tot       1.00000  
      27  cha027                  27    4466.82920      41.29535     -82.61235             0        27     s41300n82600w         0         0         0         1           sdc         1           tot       1.00000  
      28  cha028                  28    5938.22160      41.21722     -82.63689             0        28     s41200n82600w         0         0         0         1           sdc        14           tot       1.00000  
      29  cha029                  29    4362.03960      41.20517     -82.62851             0        29     s41200n82600w         0         0         0         1           sdc        28           tot       1.00000  
      30  cha030                  30    4291.69360      41.12522     -82.62417             0        30     s41100n82600w         0         0         0         1           sdc        24           tot       1.00000  
      31  cha031                  31    7639.44240      41.03326     -82.68028             0        31     s41000n82700w         0         0         0         1           sdc        21           tot       1.00000  
      32  cha032                  32    7998.95200      41.01951     -82.66345             0        32     s41000n82700w         0         0         0         1           sdc        21           tot       1.00000  
      33  cha033                  33    6263.54840      41.02374     -82.69841             0        33     s41000n82700w         0         0         0         1           sdc        31           tot       1.00000  
      34  cha034                  34    3338.04840      41.28645     -82.60636             0        34     s41300n82600w         0         0         0         1           sdc        27           tot       1.00000  
      35  cha035                  35    3749.95600      41.19586     -82.62694             0        35     s41200n82600w         0         0         0         1           sdc        29           tot       1.00000  
      36  cha036                  36    5609.13200      41.02311     -82.70404             0        36     s41000n82700w         0         0         0         1           sdc        33           tot       1.00000  
      37  cha037                  37    7764.65280      41.21521     -82.73687             0        37     s41200n82700w         0         0         0         1           sdc         7           tot       1.00000  
      38  cha038                  38    3714.12000      41.02303     -82.71230             0        38     s41000n82700w         0         0         0         1           sdc        36           tot       1.00000  
      39  cha039                  39    3093.34900      41.20037     -82.77899             0        39     s41200n82800w         0         0         0         1           sdc        37           tot       1.00000  
      40  cha040                  40    3844.65760      41.27054     -82.71468             0        40     s41300n82700w         0         0         0         1           sdc         5           tot       1.00000  
      41  cha041                  41    5935.21880      41.11749     -82.71815             0        41     s41100n82700w         0         0         0         1           sdc        11           tot       1.00000  
      42  cha042                  42    3608.51880      41.10312     -82.72754             0        42     s41100n82700w         0         0         0         1           sdc        41           tot       1.00000  
      43  cha043                  43    4880.83000      41.00329     -82.63107             0        43     s41000n82600w         0         0         0         1           sdc        32           tot       1.00000  
      44  cha044                  44    3035.11720      41.12411     -82.80865             0        44     s41100n82800w         0         0         0         1           sdc        25           tot       1.00000  
      45  cha045                  45    3964.91360      41.11423     -82.79146             0        45     s41100n82800w         0         0         0         1           sdc        25           tot       1.00000  
      46  cha046                  46    2483.69420      41.09246     -82.72531             0        46     s41100n82700w         0         0         0         1           sdc        42           tot       1.00000  
      47  cha047                  47    3174.80380      41.18143     -82.79232             0        47     s41200n82800w         0         0         0         1           sdc        37           tot       1.00000  
      48  cha048                  48    3109.23320      41.01054     -82.58819             0        48     s41000n82600w         0         0         0         1           sdc        43           tot       1.00000  
      49  cha049                  49    2497.74560      41.07369     -82.64211             0        49     s41100n82600w         0         0         0         1           sdc        18           tot       1.00000  
      50  cha050                  50    1534.46710      41.00895     -82.57686             0        50     s41000n82600w         0         0         0         1           sdc        48           tot       1.00000  
      51  cha051                  51    1498.75760      41.09303     -82.80959             0        51     s41100n82800w         0         0         0         1           sdc        45           tot       1.00000  
      52  cha052                  52    1891.85300      41.00521     -82.70537             0        52     s41000n82700w         0         0         0         1           sdc        36           tot       1.00000  
      53  cha053                  53    1669.00560      40.99186     -82.66429             0        53     s41000n82700w         0         0         0         1           sdc        32           tot       1.00000  
      54  cha054                  54    1427.35340      41.07831     -82.73531             0        54     s41100n82700w         0         0         0         1           sdc        46           tot       1.00000  
      55  cha055                  55    2477.97240      40.98438     -82.73131             0        55     s41000n82700w         0         0         0         1           sdc        38           tot       1.00000  
      56  cha056                  56     951.96130      40.98073     -82.70485             0        56     s41000n82700w         0         0         0         1           sdc        52           tot       1.00000  
      57  cha057                  57     680.49285      40.98113     -82.66905             0        57     s41000n82700w         0         0         0         1           sdc        53           tot       1.00000  
      58  cha058                  58     796.09995      40.98297     -82.66027             0        58     s41000n82700w         0         0         0         1           sdc        53           tot       1.00000  
      59  cha059                  59     565.52645      40.98788     -82.69975             0        59     s41000n82700w         0         0         0         1           sdc        52           tot       1.00000  
      60  cha060                  60     836.77145      40.99964     -82.58352             0        60     s41000n82600w         0         0         0         1           sdc        50           tot       1.00000  
      61  cha061                  61     848.36420      41.00392     -82.60548             0        61     s41000n82600w         0         0         0         1           sdc        43           tot       1.00000  
      62  cha062                  62     607.76995      41.00503     -82.57631             0        62     s41000n82600w         0         0         0         1           sdc        50           tot       1.00000  
      63  cha063                  63     887.63500      41.00906     -82.56865             0        63     s41000n82600w         0         0         0         1           sdc        48           tot       1.00000  
      64  cha064                  64     762.40200      41.01965     -82.71745             0        64     s41000n82700w         0         0         0         1           sdc        38           tot       1.00000  
      65  cha065                  65     808.93690      41.02082     -82.69582             0        65     s41000n82700w         0         0         0         1           sdc        31           tot       1.00000  
      66  cha066                  66     651.48860      41.02537     -82.70661             0        66     s41000n82700w         0         0         0         1           sdc        33           tot       1.00000  
      67  cha067                  67    1320.63460      41.05032     -82.65380             0        67     s41100n82700w         0         0         0         1           sdc        20           tot       1.00000  
      68  cha068                  68    1416.15550      41.06979     -82.62388             0        68     s41100n82600w         0         0         0         1           sdc        49           tot       1.00000  
      69  cha069                  69     580.07700      41.06824     -82.74368             0        69     s41100n82700w         0         0         0         1           sdc        54           tot       1.00000  
      70  cha070                  70     528.58760      41.07290     -82.65925             0        70     s41100n82700w         0         0         0         1           sdc        17           tot       1.00000  
      71  cha071                  71     532.79705      41.07101     -82.74801             0        71     s41100n82700w         0         0         0         1           sdc        54           tot       1.00000  
      72  cha072                  72     900.35270      41.07805     -82.61432             0        72     s41100n82600w         0         0         0         1           sdc        49           tot       1.00000  
      73  cha073                  73     672.69975      41.08262     -82.72299             0        73     s41100n82700w         0         0         0         1           sdc        46           tot       1.00000  
      74  cha074                  74     690.23045      41.08759     -82.79948             0        74     s41100n82800w         0         0         0         1           sdc        45           tot       1.00000  
      75  cha075                  75    1080.85240      41.09221     -82.71590             0        75     s41100n82700w         0         0         0         1           sdc        42           tot       1.00000  
      76  cha076                  76     777.49645      41.08673     -82.82704             0        76     s41100n82800w         0         0         0         1           sdc        51           tot       1.00000  
      77  cha077                  77    1441.63570      41.09534     -82.75087             0        77     s41100n82800w         0         0         0         1           sdc        41           tot       1.00000  
      78  cha078                  78     550.50655      41.08913     -82.81771             0        78     s41100n82800w         0         0         0         1           sdc        51           tot       1.00000  
      79  cha079                  79     662.39595      41.10478     -82.67280             0        79     s41100n82700w         0         0         0         1           sdc        15           tot       1.00000  
      80  cha080                  80    2852.06200      41.10866     -82.57663             0        80     s41100n82600w         0         0         0         1           sdc        30           tot       1.00000  
      81  cha081                  81    1074.27380      41.10736     -82.84036             0        81     s41100n82800w         0         0         0         1           sdc        44           tot       1.00000  
      82  cha082                  82    1245.26680      41.11370     -82.59510             0        82     s41100n82600w         0         0         0         1           sdc        30           tot       1.00000  
      83  cha083                  83    1553.46550      41.11339     -82.85903             0        83     s41100n82900w         0         0         0         1           sdc        44           tot       1.00000  
      84  cha084                  84     599.20950      41.12271     -82.68261             0        84     s41100n82700w         0         0         0         1           sdc        12           tot       1.00000  
      85  cha085                  85     579.07120      41.13610     -82.62212             0        85     s41100n82600w         0         0         0         1           sdc        24           tot       1.00000  
      86  cha086                  86    1147.02650      41.14707     -82.63525             0        86     s41100n82600w         0         0         0         1           sdc        23           tot       1.00000  
      87  cha087                  87    1116.43530      41.15125     -82.62038             0        87     s41200n82600w         0         0         0         1           sdc        22           tot       1.00000  
      88  cha088                  88     630.43390      41.14994     -82.81460             0        88     s41100n82800w         0         0         0         1           sdc        47           tot       1.00000  
      89  cha089                  89     830.84095      41.15070     -82.82584             0        89     s41200n82800w         0         0         0         1           sdc        47           tot       1.00000  
      90  cha090                  90    2871.09760      41.16861     -82.58814             0        90     s41200n82600w         0         0         0         1           sdc        35           tot       1.00000  
      91  cha091                  91    1272.43080      41.16687     -82.74583             0        91     s41200n82700w         0         0         0         1           sdc        19           tot       1.00000  
      92  cha092                  92    2300.58680      41.17481     -82.82553             0        92     s41200n82800w         0         0         0         1           sdc        39           tot       1.00000  
      93  cha093                  93     517.54620      41.16977     -82.69996             0        93     s41200n82700w         0         0         0         1           sdc        10           tot       1.00000  
      94  cha094                  94    1354.31760      41.19121     -82.58684             0        94     s41200n82600w         0         0         0         1           sdc        28           tot       1.00000  
      95  cha095                  95     800.47330      41.18030     -82.68706             0        95     s41200n82700w         0         0         0         1           sdc         9           tot       1.00000  
      96  cha096                  96     678.41420      41.18202     -82.72863             0        96     s41200n82700w         0         0         0         1           sdc        16           tot       1.00000  
      97  cha097                  97     650.52005      41.18843     -82.62439             0        97     s41200n82600w         0         0         0         1           sdc        35           tot       1.00000  
      98  cha098                  98    2465.86540      41.21260     -82.58916             0        98     s41200n82600w         0         0         0         1           sdc        26           tot       1.00000  
      99  cha099                  99     603.42640      41.20135     -82.62322             0        99     s41200n82600w         0         0         0         1           sdc        29           tot       1.00000  
     100  cha100                 100     639.47120      41.19707     -82.79408             0       100     s41200n82800w         0         0         0         1           sdc        39           tot       1.00000  
     101  cha101                 101    2786.03700      41.22160     -82.58469             0       101     s41200n82600w         0         0         0         1           sdc        26           tot       1.00000  
     102  cha102                 102    1949.80940      41.24013     -82.78970             0       102     s41200n82800w         0         0         0         1           sdc        40           tot       1.00000  
     103  cha103                 103    1775.21780      41.23527     -82.72092             0       103     s41200n82700w         0         0         0         1           sdc         6           tot       1.00000  
     104  cha104                 104    1152.25660      41.24740     -82.77208             0       104     s41200n82800w         0         0         0         1           sdc        40           tot       1.00000  
     105  cha105                 105    2189.69580      41.26156     -82.55078             0       105     s41300n82600w         0         0         0         1           sdc        34           tot       1.00000  
     106  cha106                 106     819.65795      41.27252     -82.65126             0       106     s41300n82700w         0         0         0         1           sdc         3           tot       1.00000  
     107  cha107                 107     692.96475      41.27337     -82.59681             0       107     s41300n82600w         0         0         0         1           sdc        34           tot       1.00000  
     108  cha108                 108    1100.16370      41.28308     -82.61648             0       108     s41300n82600w         0         0         0         1           sdc        27           tot       1.00000  
     109  cha109                 109     595.20865      41.28815     -82.68371             0       109     s41300n82700w         0         0         0         1           sdc         4           tot       1.00000  
