codes.sft: written by SWAT+ editor v2.3.3 on 2024-01-06 18:26 for SWAT+ rev.60.5.7
landscape     hyd           plnt          sed           nut           ch_sed        ch_nut        res           
y             b             n             n             n             n             n             n             
