ls_unit.def: written by SWAT+ editor v2.3.3 on 2024-01-09 16:51 for SWAT+ rev.60.5.7
109
      id              name          area  elem_tot  elements  
       1           rtu0010     240.37072         2        19       -53  
       2           rtu0020     688.59137         2         1       -18  
       3           rtu0030     232.03378         2        95      -108  
       4           rtu0040     571.03971         2        81       -94  
       5           rtu0050     110.80164         2        72       -80  
       6           rtu0060     760.41277         2       362      -396  
       7           rtu0070     482.66363         2       358      -361  
       8           rtu0080      43.40575         2       775      -796  
       9           rtu0090     446.49217         2       883      -907  
      10           rtu0100     125.08397         2       863      -882  
      11           rtu0110    1123.34924         2       842      -862  
      12           rtu0120     405.79835         2      1178     -1206  
      13           rtu0130    1205.06471         2       282      -323  
      14           rtu0140       3.17385         2       644      -649  
      15           rtu0150     603.13583         2      1154     -1177  
      16           rtu0160    1711.95688         2       950      -966  
      17           rtu0170    1322.31835         2      1125     -1153  
      18           rtu0180      32.58784         2      1115     -1124  
      19           rtu0190     196.36149         2       938      -949  
      20           rtu0200     524.91458         2      1605     -1619  
      21           rtu0210     422.27853         2      1589     -1604  
      22           rtu0220    2953.79653         2       567      -591  
      23           rtu0230       8.86592         2       561      -566  
      24           rtu0240     345.08542         2       543      -560  
      25           rtu0250    1027.85807         2       923      -937  
      26           rtu0260      14.15567         2       633      -643  
      27           rtu0270      28.61680         2       266      -281  
      28           rtu0280     221.86405         2       732      -774  
      29           rtu0290       8.65731         2       728      -731  
      30           rtu0300     194.36479         2       528      -542  
      31           rtu0310     566.95692         2      1821     -1851  
      32           rtu0320    1449.11590         2      2156     -2182  
      33           rtu0330       2.92799         1      1820  
      34           rtu0340     455.38789         2       226      -265  
      35           rtu0350     228.33840         2       713      -727  
      36           rtu0360       3.15895         1      1819  
      37           rtu0370    1496.50014         2       440      -453  
      38           rtu0380     473.74556         2      1802     -1818  
      39           rtu0390     153.29100         2      1001     -1013  
      40           rtu0400     742.59153         2       337      -350  
      41           rtu0410     885.06462         2      1510     -1528  
      42           rtu0420      43.97198         2      1500     -1509  
      43           rtu0430     923.23277         2      2127     -2155  
      44           rtu0440     407.37782         2      1241     -1260  
      45           rtu0450    1775.92561         2      1325     -1336  
      46           rtu0460     383.64100         2      1481     -1499  
      47           rtu0470    1713.52891         2      1047     -1054  
      48           rtu0480     687.13110         2      2106     -2126  
      49           rtu0490     181.23727         2      1556     -1571  
      50           rtu0500      89.92575         2      2094     -2105  
      51           rtu0510     170.75463         2      1306     -1324  
      52           rtu0520     374.36531         2      1772     -1801  
      53           rtu0530     192.41280         2      2045     -2093  
      54           rtu0540     314.47938         2      1466     -1480  
      55           rtu0550    2477.97232         2      1741     -1771  
      56           rtu0560     951.96133         2      1720     -1740  
      57           rtu0570     680.49284         2      2006     -2044  
      58           rtu0580     796.09996         2      1978     -2005  
      59           rtu0590     565.52645         2      1679     -1719  
      60           rtu0600     836.77143         2      1945     -1977  
      61           rtu0610     848.36418         2      1921     -1944  
      62           rtu0620     607.76995         2      1877     -1920  
      63           rtu0630     887.63499         2      1852     -1876  
      64           rtu0640     762.40202         2      1669     -1678  
      65           rtu0650     808.93692         2      1650     -1668  
      66           rtu0660     651.48862         2      1620     -1649  
      67           rtu0670    1320.63457         2      1572     -1588  
      68           rtu0680    1416.15554         2      1546     -1555  
      69           rtu0690     580.07699         2      1429     -1465  
      70           rtu0700     528.58761         2      1098     -1114  
      71           rtu0710     532.79705         2      1408     -1428  
      72           rtu0720     900.35274         2      1529     -1545  
      73           rtu0730     672.69977         2      1379     -1407  
      74           rtu0740     690.23045         2      1297     -1305  
      75           rtu0750    1080.85243         2      1361     -1378  
      76           rtu0760     777.49643         2      1275     -1296  
      77           rtu0770    1441.63575         2      1337     -1360  
      78           rtu0780     550.50654         2      1261     -1274  
      79           rtu0790     662.39593         2      1078     -1097  
      80           rtu0800    2852.06197         2       511      -527  
      81           rtu0810    1074.27377         2      1220     -1240  
      82           rtu0820    1245.26681         2       499      -510  
      83           rtu0830    1553.46554         2      1207     -1219  
      84           rtu0840     599.20950         2      1055     -1077  
      85           rtu0850     579.07119         2       489      -498  
      86           rtu0860    1147.02646         2       467      -488  
      87           rtu0870    1116.43531         2       454      -466  
      88           rtu0880     630.43392         2      1028     -1046  
      89           rtu0890     830.84095         2      1014     -1027  
      90           rtu0900    2871.09762         2       695      -712  
      91           rtu0910    1272.43079         2       913      -922  
      92           rtu0920    2300.58688         2       981     -1000  
      93           rtu0930     517.54618         2       819      -841  
      94           rtu0940    1354.31762         2       677      -694  
      95           rtu0950     800.47332         2       797      -818  
      96           rtu0960     678.41419         2       908      -912  
      97           rtu0970     650.52007         2       664      -676  
      98           rtu0980    2465.86550         2       592      -632  
      99           rtu0990     603.42640         2       650      -663  
     100           rtu1000     639.47120         2       967      -980  
     101           rtu1010    2786.03694         2       397      -439  
     102           rtu1020    1949.80939         2       329      -336  
     103           rtu1030    1775.21783         2       351      -357  
     104           rtu1040    1152.25661         2       324      -328  
     105           rtu1050    2189.69583         2       197      -225  
     106           rtu1060     819.65797         2        62       -71  
     107           rtu1070     692.96473         2       146      -196  
     108           rtu1080    1100.16374         2       109      -145  
     109           rtu1090     595.20866         2        54       -61  
