ls_unit.ele: written by SWAT+ editor v2.3.3 on 2024-01-09 16:51 for SWAT+ rev.60.5.7
      id  name                   obj_typ  obj_typ_no      bsn_frac      sub_frac      reg_frac  
       1  hru0001                    hru           1     9.5270E-4       0.12541       0.00000  
       2  hru0002                    hru           2     6.6839E-4       0.08798       0.00000  
       3  hru0003                    hru           3     1.0037E-3       0.13212       0.00000  
       4  hru0004                    hru           4     1.4432E-4       0.01900       0.00000  
       5  hru0005                    hru           5     1.8314E-3       0.24107       0.00000  
       6  hru0006                    hru           6     2.6637E-4       0.03506       0.00000  
       7  hru0007                    hru           7     3.8043E-4       0.05008       0.00000  
       8  hru0008                    hru           8     3.1625E-4       0.04163       0.00000  
       9  hru0009                    hru           9     1.3249E-4       0.01744       0.00000  
      10  hru0010                    hru          10     2.5833E-4       0.03401       0.00000  
      11  hru0011                    hru          11     1.1109E-4       0.01462       0.00000  
      12  hru0012                    hru          12     1.5369E-4       0.02023       0.00000  
      13  hru0013                    hru          13     6.8999E-5       0.00908       0.00000  
      14  hru0014                    hru          14     1.4101E-4       0.01856       0.00000  
      15  hru0015                    hru          15     4.7707E-4       0.06280       0.00000  
      16  hru0016                    hru          16     4.7822E-4       0.06295       0.00000  
      17  hru0017                    hru          17     1.9941E-4       0.02625       0.00000  
      18  hru0018                    hru          18     5.6114E-5       0.00739       0.00000  
      19  hru0019                    hru          19     5.2643E-5       0.01985       0.00000  
      20  hru0020                    hru          20     8.4131E-5       0.03173       0.00000  
      21  hru0021                    hru          21     4.8178E-4       0.18168       0.00000  
      22  hru0022                    hru          22     1.0382E-4       0.03915       0.00000  
      23  hru0023                    hru          23     2.0540E-4       0.07746       0.00000  
      24  hru0024                    hru          24     2.3991E-4       0.09047       0.00000  
      25  hru0025                    hru          25     4.0944E-5       0.01544       0.00000  
      26  hru0026                    hru          26     3.6508E-5       0.01377       0.00000  
      27  hru0027                    hru          27     2.4190E-4       0.09122       0.00000  
      28  hru0028                    hru          28     2.3517E-5       0.00887       0.00000  
      29  hru0029                    hru          29     1.2508E-4       0.04717       0.00000  
      30  hru0030                    hru          30     2.3991E-5       0.00905       0.00000  
      31  hru0031                    hru          31     1.2166E-4       0.04588       0.00000  
      32  hru0032                    hru          32     6.7801E-5       0.02557       0.00000  
      33  hru0033                    hru          33     6.1764E-5       0.02329       0.00000  
      34  hru0034                    hru          34     9.7965E-6       0.00369       0.00000  
      35  hru0035                    hru          35     2.9856E-5       0.01126       0.00000  
      36  hru0036                    hru          36     2.1646E-5       0.00816       0.00000  
      37  hru0037                    hru          37     7.1841E-6       0.00271       0.00000  
      38  hru0038                    hru          38     4.7676E-5       0.01798       0.00000  
      39  hru0039                    hru          39     2.4631E-5       0.00929       0.00000  
      40  hru0040                    hru          40     2.0059E-5       0.00756       0.00000  
      41  hru0041                    hru          41     3.5454E-5       0.01337       0.00000  
      42  hru0042                    hru          42     1.2316E-5       0.00464       0.00000  
      43  hru0043                    hru          43     3.6096E-5       0.01361       0.00000  
      44  hru0044                    hru          44     2.5463E-5       0.00960       0.00000  
      45  hru0045                    hru          45     1.7973E-4       0.06778       0.00000  
      46  hru0046                    hru          46     2.6862E-5       0.01013       0.00000  
      47  hru0047                    hru          47     3.0127E-5       0.01136       0.00000  
      48  hru0048                    hru          48     2.4437E-5       0.00922       0.00000  
      49  hru0049                    hru          49     1.1286E-5       0.00426       0.00000  
      50  hru0050                    hru          50     5.5123E-5       0.02079       0.00000  
      51  hru0051                    hru          51     6.7828E-5       0.02558       0.00000  
      52  hru0052                    hru          52     2.4622E-5       0.00929       0.00000  
      53  hru0053                    hru          53     7.0430E-5       0.02656       0.00000  
      54  hru0054                    hru          54     2.5407E-4       0.03869       0.00000  
      55  hru0055                    hru          55     1.5250E-4       0.02322       0.00000  
      56  hru0056                    hru          56     2.2921E-3       0.34906       0.00000  
      57  hru0057                    hru          57     1.0723E-3       0.16330       0.00000  
      58  hru0058                    hru          58     8.9194E-4       0.13583       0.00000  
      59  hru0059                    hru          59     1.5461E-4       0.02354       0.00000  
      60  hru0060                    hru          60     1.4735E-3       0.22440       0.00000  
      61  hru0061                    hru          61     2.8815E-4       0.04388       0.00000  
      62  hru0062                    hru          62     1.6152E-5       0.00179       0.00000  
      63  hru0063                    hru          63     1.1990E-4       0.01326       0.00000  
      64  hru0064                    hru          64     3.4982E-4       0.03868       0.00000  
      65  hru0065                    hru          65     9.2853E-5       0.01027       0.00000  
      66  hru0066                    hru          66     9.9038E-5       0.01095       0.00000  
      67  hru0067                    hru          67     7.3286E-5       0.00810       0.00000  
      68  hru0068                    hru          68     1.0087E-3       0.11155       0.00000  
      69  hru0069                    hru          69     5.8547E-3       0.64745       0.00000  
      70  hru0070                    hru          70     1.0539E-3       0.11654       0.00000  
      71  hru0071                    hru          71     3.7433E-4       0.04140       0.00000  
      72  hru0072                    hru          72     1.0223E-5       0.00836       0.00000  
      73  hru0073                    hru          73     1.7779E-5       0.01454       0.00000  
      74  hru0074                    hru          74     9.6275E-5       0.07876       0.00000  
      75  hru0075                    hru          75     9.2452E-6       0.00756       0.00000  
      76  hru0076                    hru          76     1.0756E-5       0.00880       0.00000  
      77  hru0077                    hru          77     7.6192E-4       0.62330       0.00000  
      78  hru0078                    hru          78     2.5443E-5       0.02081       0.00000  
      79  hru0079                    hru          79     2.5416E-4       0.20792       0.00000  
      80  hru0080                    hru          80     3.6598E-5       0.02994       0.00000  
      81  hru0081                    hru          81     2.7449E-4       0.04357       0.00000  
      82  hru0082                    hru          82     4.6163E-3       0.73276       0.00000  
      83  hru0083                    hru          83     3.9564E-4       0.06280       0.00000  
      84  hru0084                    hru          84     1.5009E-4       0.02383       0.00000  
      85  hru0085                    hru          85     1.8068E-4       0.02868       0.00000  
      86  hru0086                    hru          86     3.7359E-5       0.00593       0.00000  
      87  hru0087                    hru          87     5.0722E-5       0.00805       0.00000  
      88  hru0088                    hru          88     1.6252E-4       0.02580       0.00000  
      89  hru0089                    hru          89     4.0276E-5       0.00639       0.00000  
      90  hru0090                    hru          90     8.7140E-5       0.01383       0.00000  
      91  hru0091                    hru          91     5.2980E-5       0.00841       0.00000  
      92  hru0092                    hru          92     1.1405E-4       0.01810       0.00000  
      93  hru0093                    hru          93     8.8269E-5       0.01401       0.00000  
      94  hru0094                    hru          94     4.9781E-5       0.00790       0.00000  
      95  hru0095                    hru          95     3.5097E-4       0.13710       0.00000  
      96  hru0096                    hru          96     1.3883E-4       0.05423       0.00000  
      97  hru0097                    hru          97     4.9999E-5       0.01953       0.00000  
      98  hru0098                    hru          98     1.7573E-4       0.06865       0.00000  
      99  hru0099                    hru          99     6.2562E-4       0.24440       0.00000  
     100  hru0100                    hru         100     1.8922E-4       0.07392       0.00000  
     101  hru0101                    hru         101     5.6795E-5       0.02219       0.00000  
     102  hru0102                    hru         102     3.6635E-4       0.14311       0.00000  
     103  hru0103                    hru         103     2.7640E-5       0.01080       0.00000  
     104  hru0104                    hru         104     2.0263E-4       0.07916       0.00000  
     105  hru0105                    hru         105     1.1547E-4       0.04511       0.00000  
     106  hru0106                    hru         106     1.3194E-4       0.05154       0.00000  
     107  hru0107                    hru         107     1.1364E-4       0.04439       0.00000  
     108  hru0108                    hru         108     2.5425E-5       0.00993       0.00000  
     109  hru0109                    hru         109     5.0342E-5       0.00415       0.00000  
     110  hru0110                    hru         110     1.1553E-4       0.00952       0.00000  
     111  hru0111                    hru         111     4.0506E-5       0.00334       0.00000  
     112  hru0112                    hru         112     5.4186E-4       0.04464       0.00000  
     113  hru0113                    hru         113     1.0533E-4       0.00868       0.00000  
     114  hru0114                    hru         114     1.7088E-4       0.01408       0.00000  
     115  hru0115                    hru         115     4.9143E-4       0.04049       0.00000  
     116  hru0116                    hru         116     6.8940E-5       0.00568       0.00000  
     117  hru0117                    hru         117     6.0088E-5       0.00495       0.00000  
     118  hru0118                    hru         118     1.2892E-4       0.01062       0.00000  
     119  hru0119                    hru         119     8.0231E-4       0.06610       0.00000  
     120  hru0120                    hru         120     4.9380E-5       0.00407       0.00000  
     121  hru0121                    hru         121     6.1610E-5       0.00508       0.00000  
     122  hru0122                    hru         122     1.9577E-4       0.01613       0.00000  
     123  hru0123                    hru         123     5.2047E-5       0.00429       0.00000  
     124  hru0124                    hru         124     1.3656E-4       0.01125       0.00000  
     125  hru0125                    hru         125     1.5143E-3       0.12476       0.00000  
     126  hru0126                    hru         126     9.7363E-5       0.00802       0.00000  
     127  hru0127                    hru         127     4.2758E-4       0.03523       0.00000  
     128  hru0128                    hru         128     1.5669E-4       0.01291       0.00000  
     129  hru0129                    hru         129     1.2565E-4       0.01035       0.00000  
     130  hru0130                    hru         130     4.1061E-4       0.03383       0.00000  
     131  hru0131                    hru         131     2.2105E-4       0.01821       0.00000  
     132  hru0132                    hru         132     2.3075E-3       0.19011       0.00000  
     133  hru0133                    hru         133     1.0407E-4       0.00857       0.00000  
     134  hru0134                    hru         134     1.3873E-4       0.01143       0.00000  
     135  hru0135                    hru         135     1.7980E-3       0.14814       0.00000  
     136  hru0136                    hru         136     6.0347E-5       0.00497       0.00000  
     137  hru0137                    hru         137     4.2133E-4       0.03471       0.00000  
     138  hru0138                    hru         138     1.4918E-4       0.01229       0.00000  
     139  hru0139                    hru         139     8.8284E-5       0.00727       0.00000  
     140  hru0140                    hru         140     5.7156E-4       0.04709       0.00000  
     141  hru0141                    hru         141     4.5881E-5       0.00378       0.00000  
     142  hru0142                    hru         142     2.2677E-4       0.01868       0.00000  
     143  hru0143                    hru         143     3.7470E-5       0.00309       0.00000  
     144  hru0144                    hru         144     8.6580E-5       0.00713       0.00000  
     145  hru0145                    hru         145     7.6894E-5       0.00634       0.00000  
     146  hru0146                    hru         146     6.1052E-4       0.07986       0.00000  
     147  hru0147                    hru         147     5.2554E-4       0.06874       0.00000  
     148  hru0148                    hru         148     1.0930E-4       0.01430       0.00000  
     149  hru0149                    hru         149     7.5264E-5       0.00984       0.00000  
     150  hru0150                    hru         150     2.1672E-4       0.02835       0.00000  
     151  hru0151                    hru         151     1.4847E-4       0.01942       0.00000  
     152  hru0152                    hru         152     4.9459E-5       0.00647       0.00000  
     153  hru0153                    hru         153     5.3105E-5       0.00695       0.00000  
     154  hru0154                    hru         154     1.1801E-4       0.01544       0.00000  
     155  hru0155                    hru         155     7.1760E-5       0.00939       0.00000  
     156  hru0156                    hru         156     4.1289E-5       0.00540       0.00000  
     157  hru0157                    hru         157     2.0996E-4       0.02746       0.00000  
     158  hru0158                    hru         158     5.9680E-5       0.00781       0.00000  
     159  hru0159                    hru         159     2.1816E-5       0.00285       0.00000  
     160  hru0160                    hru         160     7.2391E-5       0.00947       0.00000  
     161  hru0161                    hru         161     3.1823E-5       0.00416       0.00000  
     162  hru0162                    hru         162     1.2477E-4       0.01632       0.00000  
     163  hru0163                    hru         163     6.5034E-4       0.08507       0.00000  
     164  hru0164                    hru         164     4.7018E-4       0.06150       0.00000  
     165  hru0165                    hru         165     1.0055E-3       0.13153       0.00000  
     166  hru0166                    hru         166     1.5434E-4       0.02019       0.00000  
     167  hru0167                    hru         167     1.8364E-4       0.02402       0.00000  
     168  hru0168                    hru         168     3.9504E-4       0.05167       0.00000  
     169  hru0169                    hru         169     1.2069E-4       0.01579       0.00000  
     170  hru0170                    hru         170     3.0563E-5       0.00400       0.00000  
     171  hru0171                    hru         171     1.9237E-5       0.00252       0.00000  
     172  hru0172                    hru         172     2.4810E-5       0.00325       0.00000  
     173  hru0173                    hru         173     8.6387E-5       0.01130       0.00000  
     174  hru0174                    hru         174     5.1688E-5       0.00676       0.00000  
     175  hru0175                    hru         175     8.3240E-5       0.01089       0.00000  
     176  hru0176                    hru         176     1.5713E-4       0.02055       0.00000  
     177  hru0177                    hru         177     1.1290E-4       0.01477       0.00000  
     178  hru0178                    hru         178     2.4810E-5       0.00325       0.00000  
     179  hru0179                    hru         179     3.2721E-5       0.00428       0.00000  
     180  hru0180                    hru         180     1.6900E-5       0.00221       0.00000  
     181  hru0181                    hru         181     2.0753E-4       0.02715       0.00000  
     182  hru0182                    hru         182     1.4310E-4       0.01872       0.00000  
     183  hru0183                    hru         183     5.8301E-5       0.00763       0.00000  
     184  hru0184                    hru         184     9.9788E-5       0.01305       0.00000  
     185  hru0185                    hru         185     8.7543E-5       0.01145       0.00000  
     186  hru0186                    hru         186     6.7896E-5       0.00888       0.00000  
     187  hru0187                    hru         187     2.0743E-5       0.00271       0.00000  
     188  hru0188                    hru         188     2.0981E-4       0.02744       0.00000  
     189  hru0189                    hru         189     3.2547E-5       0.00426       0.00000  
     190  hru0190                    hru         190     9.8088E-5       0.01283       0.00000  
     191  hru0191                    hru         191     1.2876E-5       0.00168       0.00000  
     192  hru0192                    hru         192     3.4425E-5       0.00450       0.00000  
     193  hru0193                    hru         193     3.8716E-5       0.00506       0.00000  
     194  hru0194                    hru         194     2.6556E-5       0.00347       0.00000  
     195  hru0195                    hru         195     2.6333E-4       0.03444       0.00000  
     196  hru0196                    hru         196     8.3692E-5       0.01095       0.00000  
     197  hru0197                    hru         197     7.9721E-5       0.00330       0.00000  
     198  hru0198                    hru         198     1.7310E-4       0.00717       0.00000  
     199  hru0199                    hru         199     9.9892E-5       0.00414       0.00000  
     200  hru0200                    hru         200     7.0330E-5       0.00291       0.00000  
     201  hru0201                    hru         201     3.0298E-4       0.01254       0.00000  
     202  hru0202                    hru         202     7.9423E-4       0.03288       0.00000  
     203  hru0203                    hru         203     3.8633E-4       0.01599       0.00000  
     204  hru0204                    hru         204     7.4492E-5       0.00308       0.00000  
     205  hru0205                    hru         205     8.4631E-5       0.00350       0.00000  
     206  hru0206                    hru         206     6.9135E-4       0.02862       0.00000  
     207  hru0207                    hru         207     1.4057E-4       0.00582       0.00000  
     208  hru0208                    hru         208     6.4963E-4       0.02689       0.00000  
     209  hru0209                    hru         209     3.4528E-4       0.01429       0.00000  
     210  hru0210                    hru         210     9.5498E-5       0.00395       0.00000  
     211  hru0211                    hru         211     1.3261E-4       0.00549       0.00000  
     212  hru0212                    hru         212     2.5140E-4       0.01041       0.00000  
     213  hru0213                    hru         213     1.0185E-4       0.00422       0.00000  
     214  hru0214                    hru         214     5.9517E-4       0.02464       0.00000  
     215  hru0215                    hru         215     9.3915E-4       0.03888       0.00000  
     216  hru0216                    hru         216     8.7319E-4       0.03615       0.00000  
     217  hru0217                    hru         217     1.7184E-4       0.00711       0.00000  
     218  hru0218                    hru         218     3.8323E-4       0.01586       0.00000  
     219  hru0219                    hru         219     4.5451E-4       0.01881       0.00000  
     220  hru0220                    hru         220     2.2299E-3       0.09231       0.00000  
     221  hru0221                    hru         221     7.3300E-4       0.03034       0.00000  
     222  hru0222                    hru         222     5.9231E-4       0.02452       0.00000  
     223  hru0223                    hru         223     5.6891E-4       0.02355       0.00000  
     224  hru0224                    hru         224     2.2941E-3       0.09496       0.00000  
     225  hru0225                    hru         225     9.9238E-3       0.41080       0.00000  
     226  hru0226                    hru         226     1.7759E-5       0.00353       0.00000  
     227  hru0227                    hru         227     7.6774E-5       0.01528       0.00000  
     228  hru0228                    hru         228     1.4207E-5       0.00283       0.00000  
     229  hru0229                    hru         229     7.6774E-5       0.01528       0.00000  
     230  hru0230                    hru         230     1.4481E-5       0.00288       0.00000  
     231  hru0231                    hru         231     4.3660E-4       0.08690       0.00000  
     232  hru0232                    hru         232     8.3333E-5       0.01659       0.00000  
     233  hru0233                    hru         233     2.1243E-4       0.04228       0.00000  
     234  hru0234                    hru         234     2.3784E-5       0.00473       0.00000  
     235  hru0235                    hru         235     3.6577E-5       0.00728       0.00000  
     236  hru0236                    hru         236     3.2865E-4       0.06542       0.00000  
     237  hru0237                    hru         237     1.1784E-4       0.02346       0.00000  
     238  hru0238                    hru         238     1.2532E-4       0.02494       0.00000  
     239  hru0239                    hru         239     9.3784E-5       0.01867       0.00000  
     240  hru0240                    hru         240     9.2973E-5       0.01851       0.00000  
     241  hru0241                    hru         241     7.0136E-5       0.01396       0.00000  
     242  hru0242                    hru         242     8.5083E-5       0.01694       0.00000  
     243  hru0243                    hru         243     5.1032E-5       0.01016       0.00000  
     244  hru0244                    hru         244     1.2709E-4       0.02530       0.00000  
     245  hru0245                    hru         245     2.4410E-5       0.00486       0.00000  
     246  hru0246                    hru         246     2.9098E-5       0.00579       0.00000  
     247  hru0247                    hru         247     4.2514E-5       0.00846       0.00000  
     248  hru0248                    hru         248     4.2326E-4       0.08425       0.00000  
     249  hru0249                    hru         249     2.8831E-4       0.05739       0.00000  
     250  hru0250                    hru         250     3.9236E-4       0.07810       0.00000  
     251  hru0251                    hru         251     3.9786E-5       0.00792       0.00000  
     252  hru0252                    hru         252     3.6726E-5       0.00731       0.00000  
     253  hru0253                    hru         253     1.2504E-5       0.00249       0.00000  
     254  hru0254                    hru         254     1.0309E-4       0.02052       0.00000  
     255  hru0255                    hru         255     1.3405E-4       0.02668       0.00000  
     256  hru0256                    hru         256     2.2123E-5       0.00440       0.00000  
     257  hru0257                    hru         257     4.7219E-5       0.00940       0.00000  
     258  hru0258                    hru         258     4.0573E-5       0.00808       0.00000  
     259  hru0259                    hru         259     1.4489E-4       0.02884       0.00000  
     260  hru0260                    hru         260     9.2772E-5       0.01847       0.00000  
     261  hru0261                    hru         261     5.1758E-4       0.10302       0.00000  
     262  hru0262                    hru         262     2.3755E-5       0.00473       0.00000  
     263  hru0263                    hru         263     4.7511E-5       0.00946       0.00000  
     264  hru0264                    hru         264     4.5926E-4       0.09141       0.00000  
     265  hru0265                    hru         265     2.0712E-5       0.00412       0.00000  
     266  hru0266                    hru         266     4.4358E-5       0.14050       0.00000  
     267  hru0267                    hru         267     3.3513E-5       0.10615       0.00000  
     268  hru0268                    hru         268     1.7779E-6       0.00563       0.00000  
     269  hru0269                    hru         269     3.5558E-6       0.01126       0.00000  
     270  hru0270                    hru         270     1.4581E-5       0.04618       0.00000  
     271  hru0271                    hru         271     1.0564E-5       0.03346       0.00000  
     272  hru0272                    hru         272     2.0867E-5       0.06610       0.00000  
     273  hru0273                    hru         273     4.2781E-6       0.01355       0.00000  
     274  hru0274                    hru         274     1.3096E-6       0.00415       0.00000  
     275  hru0275                    hru         275     1.8937E-5       0.05998       0.00000  
     276  hru0276                    hru         276     8.7671E-7       0.00278       0.00000  
     277  hru0277                    hru         277     1.1222E-5       0.03555       0.00000  
     278  hru0278                    hru         278     1.1222E-5       0.03555       0.00000  
     279  hru0279                    hru         279     1.0331E-4       0.32724       0.00000  
     280  hru0280                    hru         280     1.6214E-5       0.05136       0.00000  
     281  hru0281                    hru         281     1.9121E-5       0.06056       0.00000  
     282  hru0282                    hru         282     7.7138E-5       0.00580       0.00000  
     283  hru0283                    hru         283     8.2784E-4       0.06227       0.00000  
     284  hru0284                    hru         284     1.4500E-4       0.01091       0.00000  
     285  hru0285                    hru         285     4.1165E-4       0.03096       0.00000  
     286  hru0286                    hru         286     3.4174E-4       0.02571       0.00000  
     287  hru0287                    hru         287     1.4918E-4       0.01122       0.00000  
     288  hru0288                    hru         288     9.6293E-4       0.07243       0.00000  
     289  hru0289                    hru         289     7.2966E-5       0.00549       0.00000  
     290  hru0290                    hru         290     3.1411E-4       0.02363       0.00000  
     291  hru0291                    hru         291     2.7643E-4       0.02079       0.00000  
     292  hru0292                    hru         292     1.2002E-3       0.09028       0.00000  
     293  hru0293                    hru         293     3.7061E-4       0.02788       0.00000  
     294  hru0294                    hru         294     4.1889E-3       0.31508       0.00000  
     295  hru0295                    hru         295     1.7197E-4       0.01294       0.00000  
     296  hru0296                    hru         296     2.7050E-4       0.02035       0.00000  
     297  hru0297                    hru         297     4.9934E-4       0.03756       0.00000  
     298  hru0298                    hru         298     4.4345E-5       0.00334       0.00000  
     299  hru0299                    hru         299     1.9709E-4       0.01482       0.00000  
     300  hru0300                    hru         300     1.1634E-4       0.00875       0.00000  
     301  hru0301                    hru         301     3.9966E-5       0.00301       0.00000  
     302  hru0302                    hru         302     1.4992E-4       0.01128       0.00000  
     303  hru0303                    hru         303     2.1351E-5       0.00161       0.00000  
     304  hru0304                    hru         304     4.8269E-5       0.00363       0.00000  
     305  hru0305                    hru         305     1.7218E-4       0.01295       0.00000  
     306  hru0306                    hru         306     1.2382E-4       0.00931       0.00000  
     307  hru0307                    hru         307     1.0275E-4       0.00773       0.00000  