rout_unit.def: written by SWAT+ editor v2.3.3 on 2024-01-09 16:51 for SWAT+ rev.60.5.7
      id              name  elem_tot  elements  
       1           rtu0010         2        19       -53  
       2           rtu0020         2         1       -18  
       3           rtu0030         2        95      -108  
       4           rtu0040         2        81       -94  
       5           rtu0050         2        72       -80  
       6           rtu0060         2       362      -396  
       7           rtu0070         2       358      -361  
       8           rtu0080         2       775      -796  
       9           rtu0090         2       883      -907  
      10           rtu0100         2       863      -882  
      11           rtu0110         2       842      -862  
      12           rtu0120         2      1178     -1206  
      13           rtu0130         2       282      -323  
      14           rtu0140         2       644      -649  
      15           rtu0150         2      1154     -1177  
      16           rtu0160         2       950      -966  
      17           rtu0170         2      1125     -1153  
      18           rtu0180         2      1115     -1124  
      19           rtu0190         2       938      -949  
      20           rtu0200         2      1605     -1619  
      21           rtu0210         2      1589     -1604  
      22           rtu0220         2       567      -591  
      23           rtu0230         2       561      -566  
      24           rtu0240         2       543      -560  
      25           rtu0250         2       923      -937  
      26           rtu0260         2       633      -643  
      27           rtu0270         2       266      -281  
      28           rtu0280         2       732      -774  
      29           rtu0290         2       728      -731  
      30           rtu0300         2       528      -542  
      31           rtu0310         2      1821     -1851  
      32           rtu0320         2      2156     -2182  
      33           rtu0330         1      1820  
      34           rtu0340         2       226      -265  
      35           rtu0350         2       713      -727  
      36           rtu0360         1      1819  
      37           rtu0370         2       440      -453  
      38           rtu0380         2      1802     -1818  
      39           rtu0390         2      1001     -1013  
      40           rtu0400         2       337      -350  
      41           rtu0410         2      1510     -1528  
      42           rtu0420         2      1500     -1509  
      43           rtu0430         2      2127     -2155  
      44           rtu0440         2      1241     -1260  
      45           rtu0450         2      1325     -1336  
      46           rtu0460         2      1481     -1499  
      47           rtu0470         2      1047     -1054  
      48           rtu0480         2      2106     -2126  
      49           rtu0490         2      1556     -1571  
      50           rtu0500         2      2094     -2105  
      51           rtu0510         2      1306     -1324  
      52           rtu0520         2      1772     -1801  
      53           rtu0530         2      2045     -2093  
      54           rtu0540         2      1466     -1480  
      55           rtu0550         2      1741     -1771  
      56           rtu0560         2      1720     -1740  
      57           rtu0570         2      2006     -2044  
      58           rtu0580         2      1978     -2005  
      59           rtu0590         2      1679     -1719  
      60           rtu0600         2      1945     -1977  
      61           rtu0610         2      1921     -1944  
      62           rtu0620         2      1877     -1920  
      63           rtu0630         2      1852     -1876  
      64           rtu0640         2      1669     -1678  
      65           rtu0650         2      1650     -1668  
      66           rtu0660         2      1620     -1649  
      67           rtu0670         2      1572     -1588  
      68           rtu0680         2      1546     -1555  
      69           rtu0690         2      1429     -1465  
      70           rtu0700         2      1098     -1114  
      71           rtu0710         2      1408     -1428  
      72           rtu0720         2      1529     -1545  
      73           rtu0730         2      1379     -1407  
      74           rtu0740         2      1297     -1305  
      75           rtu0750         2      1361     -1378  
      76           rtu0760         2      1275     -1296  
      77           rtu0770         2      1337     -1360  
      78           rtu0780         2      1261     -1274  
      79           rtu0790         2      1078     -1097  
      80           rtu0800         2       511      -527  
      81           rtu0810         2      1220     -1240  
      82           rtu0820         2       499      -510  
      83           rtu0830         2      1207     -1219  
      84           rtu0840         2      1055     -1077  
      85           rtu0850         2       489      -498  
      86           rtu0860         2       467      -488  
      87           rtu0870         2       454      -466  
      88           rtu0880         2      1028     -1046  
      89           rtu0890         2      1014     -1027  
      90           rtu0900         2       695      -712  
      91           rtu0910         2       913      -922  
      92           rtu0920         2       981     -1000  
      93           rtu0930         2       819      -841  
      94           rtu0940         2       677      -694  
      95           rtu0950         2       797      -818  
      96           rtu0960         2       908      -912  
      97           rtu0970         2       664      -676  
      98           rtu0980         2       592      -632  
      99           rtu0990         2       650      -663  
     100           rtu1000         2       967      -980  
     101           rtu1010         2       397      -439  
     102           rtu1020         2       329      -336  
     103           rtu1030         2       351      -357  
     104           rtu1040         2       324      -328  
     105           rtu1050         2       197      -225  
     106           rtu1060         2        62       -71  
     107           rtu1070         2       146      -196  
     108           rtu1080         2       109      -145  
     109           rtu1090         2        54       -61  
