soils.sol: written by SWAT+ editor v2.3.3 on 2024-01-09 16:51 for SWAT+ rev.60.5.7
name                            nly           hyd_grp        dp_tot    anion_excl      perc_crk  texture                              dp            bd           awc        soil_k        carbon          clay          silt          sand          rock           alb        usle_k            ec         caco3            ph  
169986                            4                 C    2000.00000       0.50000       0.50000  L-_CL-_CL-_CL              
                                                                                                                               210.00000       1.40000       0.18000      33.01200       1.30814      16.00000      40.00000      44.00000       6.00000       0.29000       0.32000       0.00000       0.00000       6.50000  
                                                                                                                               900.00000       1.60000       0.15000      27.93600       0.43605      28.00000      27.00000      45.00000       8.00000       0.29000       0.24000       0.00000       0.00000       6.20000  
                                                                                                                              1320.00000       1.80000       0.04000       3.31200       0.14535      35.00000      40.00000      25.00000       1.00000       0.29000       0.37000       0.00000      12.00000       7.00000  
                                                                                                                              2000.00000       1.80000       0.03000       2.66400       0.14535      33.00000      39.00000      28.00000       5.00000       0.29000       0.37000       0.00000      24.00000       7.80000  
169990                            3                 C    1520.00000       0.50000       0.50000  SICL-_SIC-_CL              
                                                                                                                               230.00000       1.48000       0.20000      33.01200       4.36047      31.00000      50.90000      18.10000       3.00000       0.23000       0.32000       0.00000       0.00000       6.50000  
                                                                                                                              1350.00000       1.53000       0.19000      10.15200       0.87209      40.00000      42.20000      17.80000       3.00000       0.23000       0.28000       0.00000       0.00000       7.20000  
                                                                                                                              1520.00000       1.58000       0.20000      33.01200       0.43605      29.00000      46.00000      25.00000       3.00000       0.23000       0.37000       0.00000      20.00000       7.60000  
169994                            2                 C     890.00000       0.50000       0.50000  SICL-_SICL                 
                                                                                                                               200.00000       1.40000       0.21000      33.01200       3.19767      29.50000      53.00000      17.50000       6.00000       0.23000       0.32000       0.00000       0.00000       6.70000  
                                                                                                                               890.00000       1.53000       0.14000      10.15200       0.75581      39.00000      43.00000      18.00000       3.00000       0.23000       0.28000       0.00000       5.00000       7.30000  
169996                            3                 C     530.00000       0.50000       0.50000  SIL-_SICL-_SIC             
                                                                                                                               330.00000       1.40000       0.19000      33.01200       1.16279      20.50000      53.10000      26.40000       3.00000       0.37000       0.32000       0.00000       0.00000       6.50000  
                                                                                                                               430.00000       1.55000       0.18000      27.93600       0.43605      39.00000      44.00000      17.00000       3.00000       0.37000       0.32000       0.00000       3.00000       6.20000  
                                                                                                                               530.00000       1.55000       0.15000      27.93600       0.14535      41.00000      44.00000      15.00000       3.00000       0.37000       0.32000       0.00000       8.00000       7.00000  
167954                            3                 C    1520.00000       0.50000       0.50000  SIL-_SIC-_SICL             
                                                                                                                               100.00000       1.40000       0.21000      33.01200       1.16279      19.50000      53.80000      26.70000       1.00000       0.30000       0.43000       0.00000       0.00000       6.20000  
                                                                                                                               660.00000       1.58000       0.14000      10.15200       0.43605      38.50000      43.30000      18.20000       1.00000       0.30000       0.32000       0.00000       0.00000       6.20000  
                                                                                                                              1520.00000       1.75000       0.10000      10.15200       0.11628      28.50000      52.50000      19.00000       3.00000       0.30000       0.43000       0.00000      15.00000       7.90000  
167955                            3                 C    1520.00000       0.50000       0.50000  SICL-_SIC-_SICL            
                                                                                                                               130.00000       1.45000       0.20000      27.93600       0.72674      29.50000      53.00000      17.50000       1.00000       0.30000       0.43000       0.00000       0.00000       6.20000  
                                                                                                                               690.00000       1.58000       0.14000      10.15200       0.43605      38.50000      43.30000      18.20000       1.00000       0.30000       0.32000       0.00000       0.00000       6.20000  
                                                                                                                              1520.00000       1.75000       0.10000      10.15200       0.11628      28.50000      52.50000      19.00000       3.00000       0.30000       0.43000       0.00000      15.00000       7.90000  
167956                            4                 C    2000.00000       0.50000       0.50000  SIL-_SICL-_SICL-_CL        
                                                                                                                               250.00000       1.40000       0.21000      33.01200       1.59884      20.00000      60.00000      20.00000       3.00000       0.29000       0.43000       0.00000       0.00000       6.20000  
                                                                                                                               740.00000       1.55000       0.15000       3.31200       0.58140      38.00000      47.00000      15.00000      10.00000       0.29000       0.37000       0.00000       0.00000       5.90000  
                                                                                                                              1070.00000       1.55000       0.12000       3.31200       0.43605      35.00000      47.00000      18.00000       1.00000       0.29000       0.37000       0.00000       0.00000       7.00000  
                                                                                                                              2000.00000       1.70000       0.09000       3.31200       0.14535      28.00000      50.00000      22.00000       2.00000       0.29000       0.43000       0.00000      15.00000       7.90000  
167957                            4                 C    2000.00000       0.50000       0.50000  SIL-_SICL-_SICL-_CL        
                                                                                                                               230.00000       1.40000       0.21000      33.01200       1.45349      22.00000      58.00000      20.00000       3.00000       0.29000       0.43000       0.00000       0.00000       6.20000  
                                                                                                                               740.00000       1.55000       0.15000       3.31200       0.58140      38.00000      47.00000      15.00000      10.00000       0.29000       0.37000       0.00000       0.00000       5.90000  
                                                                                                                              1020.00000       1.55000       0.12000       3.31200       0.43605      35.00000      47.00000      18.00000       1.00000       0.29000       0.37000       0.00000       0.00000       7.00000  
                                                                                                                              2000.00000       1.70000       0.09000       3.31200       0.14535      28.00000      50.00000      22.00000       2.00000       0.29000       0.43000       0.00000      15.00000       7.90000  
167958                            4                 A    1520.00000       0.50000       0.50000  LFS-_LFS-_FSL-_SR-_FS_SICL  
                                                                                                                               230.00000       1.33000       0.12000     330.26400       1.01744      10.00000       9.20000      80.80000       3.00000       0.30000       0.17000       0.00000       0.00000       6.50000  
                                                                                                                               790.00000       1.33000       0.09000     330.26400       0.37791      10.00000       9.20000      80.80000       3.00000       0.30000       0.24000       0.00000       0.00000       6.50000  
                                                                                                                               890.00000       1.38000       0.15000      33.01200       0.20349      15.00000      19.10000      65.90000       3.00000       0.30000       0.28000       0.00000       0.00000       6.50000  
                                                                                                                              1520.00000       1.60000       0.13000      33.01200       0.08721      18.50000      21.50000      60.00000       3.00000       0.30000       0.28000       0.00000      15.00000       7.30000  
167959                            4                 D    2000.00000       0.50000       0.50000  SIL-_SIC-_CL-_CL           
                                                                                                                               250.00000       1.45000       0.21000      33.01200       1.45349      22.00000      56.00000      22.00000       5.00000       0.29000       0.37000       0.00000       0.00000       6.40000  
                                                                                                                               830.00000       1.55000       0.15000       3.31200       0.29070      42.00000      42.00000      16.00000       5.00000       0.29000       0.32000       0.00000       0.00000       6.50000  
                                                                                                                               990.00000       1.80000       0.12000       3.31200       0.14535      35.00000      40.00000      25.00000       1.00000       0.29000       0.37000       0.00000      12.00000       7.60000  
                                                                                                                              2000.00000       1.90000       0.03000       2.66400       0.14535      33.00000      45.00000      22.00000       2.00000       0.29000       0.37000       0.00000      24.00000       8.00000  
167960                            4                 D    2000.00000       0.50000       0.50000  SIL-_SIC-_CL-_CL           
                                                                                                                               230.00000       1.45000       0.21000      33.01200       1.16279      24.00000      54.00000      22.00000       5.00000       0.29000       0.37000       0.00000       0.00000       6.40000  
                                                                                                                               810.00000       1.55000       0.15000       3.31200       0.29070      42.00000      42.00000      16.00000       5.00000       0.29000       0.32000       0.00000       0.00000       6.50000  
                                                                                                                               940.00000       1.80000       0.06000       3.31200       0.14535      35.00000      40.00000      25.00000       1.00000       0.29000       0.37000       0.00000      12.00000       7.60000  
                                                                                                                              2000.00000       1.90000       0.03000       2.66400       0.14535      33.00000      45.00000      22.00000       2.00000       0.29000       0.37000       0.00000      24.00000       8.00000  
167961                            2                 D     740.00000       0.50000       0.50000  SIL-_CN-SIL                
                                                                                                                               100.00000       1.40000       0.21000      33.01200       0.87209      21.00000      52.70000      26.30000       6.00000       0.30000       0.49000       0.00000       0.00000       5.50000  
                                                                                                                               740.00000       1.53000       0.14000       3.31200       0.14535      26.50000      55.40000      18.10000       3.00000       0.30000       0.49000       0.00000       0.00000       5.50000  
170007                            2                 C     840.00000       0.50000       0.50000  SIL-_SICL                  
                                                                                                                               230.00000       1.38000       0.20000      33.01200       1.16279      21.50000      52.40000      26.10000       3.00000       0.37000       0.43000       0.00000       0.00000       6.10000  
                                                                                                                               840.00000       1.53000       0.15000      10.15200       0.14535      39.00000      43.00000      18.00000       3.00000       0.37000       0.32000       0.00000       8.00000       6.50000  
170004                            3                 C    1520.00000       0.50000       0.50000  SIL-_CL-_SICL              
                                                                                                                               180.00000       1.40000       0.19000      33.01200       2.03488      26.00000      54.30000      19.70000       1.00000       0.37000       0.37000       0.00000       0.00000       6.70000  
                                                                                                                              1400.00000       1.53000       0.12000      10.15200       0.72674      36.00000      39.00000      25.00000       1.00000       0.37000       0.28000       0.00000       0.00000       7.00000  
                                                                                                                              1520.00000       1.74000       0.10000       3.31200       0.29070      32.50000      49.80000      17.70000       1.00000       0.37000       0.43000       0.00000      10.00000       7.90000  
170012                            3                 C    1520.00000       0.50000       0.50000  LFS-_FSL-_SICL             
                                                                                                                               740.00000       1.50000       0.09000     330.26400       1.01744       9.00000       9.20000      81.80000       3.00000       0.37000       0.15000       0.00000       0.00000       6.20000  
                                                                                                                               940.00000       1.60000       0.13000     330.26400       0.43605      11.50000      21.00000      67.50000       6.00000       0.37000       0.37000       0.00000       0.00000       6.20000  
                                                                                                                              1520.00000       1.71000       0.08000       2.55600       0.11628      39.00000      43.00000      18.00000       9.00000       0.37000       0.32000       0.00000      20.00000       7.30000  
167965                            3                 A    2000.00000       0.50000       0.50000  MUCK-_MUCK-_WD-MUCK        
                                                                                                                               300.00000       0.30000       0.39000      78.12000      40.69767       0.00000       0.00000       0.00000      20.00000       0.04000       0.00000       0.00000       0.00000       0.00000  
                                                                                                                               900.00000       0.20000       0.42000      78.12000      49.41860       0.00000       0.00000       0.00000      10.00000       0.04000       0.00000       0.00000       0.00000       0.00000  
                                                                                                                              2000.00000       0.15000       0.42000      78.12000      46.51163       0.00000       0.00000       0.00000      10.00000       0.04000       0.00000       0.00000       0.00000       0.00000  
170014                            3                 B    2000.00000       0.50000       0.50000  SIL-_L-_SR-_SL_SIL         
                                                                                                                               250.00000       1.40000       0.21000      33.01200       1.74419      24.00000      54.00000      22.00000       0.00000       0.29000       0.28000       0.00000       0.00000       7.00000  
                                                                                                                              1070.00000       1.45000       0.18000      33.01200       0.58140      24.00000      48.00000      28.00000       0.00000       0.29000       0.43000       0.00000       0.00000       7.00000  
                                                                                                                              2000.00000       1.48000       0.12000      33.01200       0.29070      18.00000      40.00000      42.00000       6.00000       0.29000       0.37000       0.00000       5.00000       7.40000  
167967                            4                 B    1520.00000       0.50000       0.50000  L-_GR-L-_GRV-SL-_GRV-SL    
                                                                                                                               200.00000       1.40000       0.16000      33.01200       1.16279      11.50000      43.20000      45.30000       9.00000       0.30000       0.37000       0.00000       0.00000       5.90000  
                                                                                                                               860.00000       1.43000       0.13000     101.62800       0.37791      24.00000      39.50000      36.50000      20.00000       0.30000       0.32000       0.00000       0.00000       5.50000  
                                                                                                                              1140.00000       1.43000       0.09000     101.62800       0.20349      11.50000      33.50000      55.00000       3.00000       0.30000       0.32000       0.00000       0.00000       5.80000  
                                                                                                                              1520.00000       1.43000       0.10000     101.62800       0.11628      10.00000      23.10000      66.90000       3.00000       0.30000       0.28000       0.00000       3.00000       6.50000  
167968                            4                 B    1520.00000       0.50000       0.50000  L-_GR-L-_GRV-SL-_GRV-SL    
                                                                                                                               200.00000       1.40000       0.16000      33.01200       1.16279      11.50000      43.20000      45.30000       9.00000       0.30000       0.37000       0.00000       0.00000       5.90000  
                                                                                                                               860.00000       1.43000       0.13000     101.62800       0.37791      24.00000      39.50000      36.50000      20.00000       0.30000       0.32000       0.00000       0.00000       5.50000  
                                                                                                                              1140.00000       1.43000       0.09000     101.62800       0.20349      11.50000      33.50000      55.00000       3.00000       0.30000       0.32000       0.00000       0.00000       5.80000  
                                                                                                                              1520.00000       1.43000       0.10000     101.62800       0.11628      10.00000      23.10000      66.90000       3.00000       0.30000       0.28000       0.00000       3.00000       6.50000  
170017                            4                 C    2000.00000       0.50000       0.50000  SIL-_SICL-_CL-_SICL        
                                                                                                                               200.00000       1.40000       0.21000      33.01200       1.16279      18.00000      62.00000      20.00000       0.00000       0.29000       0.37000       0.00000       0.00000       6.50000  
                                                                                                                               660.00000       1.55000       0.17000      33.01200       0.43605      30.00000      58.00000      12.00000       0.00000       0.29000       0.37000       0.00000       0.00000       5.50000  
                                                                                                                               940.00000       1.50000       0.12000      33.01200       0.43605      28.00000      36.00000      36.00000       8.00000       0.29000       0.37000       0.00000       0.00000       7.00000  
                                                                                                                              2000.00000       1.70000       0.09000       8.38800       0.14535      30.00000      52.00000      18.00000       8.00000       0.29000       0.43000       0.00000      18.00000       7.90000  
167970                            3                 B    1520.00000       0.50000       0.50000  SIL-_SICL-_SR-_FS_SIL      
                                                                                                                               280.00000       1.45000       0.22000      33.01200       3.19767      15.50000      54.70000      29.80000       0.00000       0.09000       0.32000       0.00000       0.00000       7.00000  
                                                                                                                               790.00000       1.45000       0.20000      33.01200       0.43605      26.50000      35.60000      37.90000       0.00000       0.09000       0.37000       0.00000       3.00000       7.00000  
                                                                                                                              1520.00000       1.55000       0.15000      33.01200       0.14535       6.00000      49.00000      45.00000       3.00000       0.09000       0.64000       0.00000      12.00000       7.90000  
167971                            3                 C    1520.00000       0.50000       0.50000  SICL-_SICL-_SIL            
                                                                                                                               150.00000       1.45000       0.17000      10.15200       1.74419      31.00000      50.90000      18.10000       1.00000       0.23000       0.32000       0.00000       0.00000       5.30000  
                                                                                                                              1120.00000       1.60000       0.12000       3.31200       0.43605      39.00000      43.20000      17.80000       1.00000       0.23000       0.32000       0.00000       3.00000       6.20000  
                                                                                                                              1520.00000       1.74000       0.10000       8.38800       0.11628      26.00000      54.00000      20.00000       1.00000       0.23000       0.49000       0.00000      12.00000       7.90000  
167972                            3                 A    1520.00000       0.50000       0.50000  LFS-_LFS-_LFS              
                                                                                                                               360.00000       1.35000       0.12000     101.62800       2.32558       6.00000      16.10000      77.90000       0.00000       0.30000       0.17000       0.00000       0.00000       5.10000  
                                                                                                                              1020.00000       1.35000       0.07000     330.26400       0.43605       3.50000      16.60000      79.90000       0.00000       0.30000       0.32000       0.00000       0.00000       5.10000  
                                                                                                                              1520.00000       1.55000       0.05000     330.26400       0.14535       3.50000      11.50000      85.00000       0.00000       0.30000       0.20000       0.00000       0.00000       6.20000  
167973                            2                 D     760.00000       0.50000       0.50000  SICL-_SICL                 
                                                                                                                               360.00000       1.33000       0.22000      10.15200       3.48837      33.50000      49.00000      17.50000       6.00000       0.23000       0.28000       0.00000       0.00000       5.80000  
                                                                                                                               760.00000       1.53000       0.11000       3.31200       0.72674      39.00000      53.80000       7.20000       1.00000       0.23000       0.37000       0.00000       0.00000       5.80000  
170016                            4                 C    2000.00000       0.50000       0.50000  SIL-_SICL-_CL-_SICL        
                                                                                                                               230.00000       1.40000       0.21000      33.01200       1.45349      18.00000      62.00000      20.00000       0.00000       0.29000       0.37000       0.00000       0.00000       6.50000  
                                                                                                                               710.00000       1.55000       0.17000      33.01200       0.58140      30.00000      58.00000      12.00000       0.00000       0.29000       0.37000       0.00000       0.00000       5.50000  
                                                                                                                               990.00000       1.50000       0.12000      33.01200       0.43605      28.00000      36.00000      36.00000       8.00000       0.29000       0.37000       0.00000       0.00000       7.00000  
                                                                                                                              2000.00000       1.70000       0.09000       8.38800       0.14535      30.00000      52.00000      18.00000       8.00000       0.29000       0.43000       0.00000      18.00000       7.90000  
167975                            4                 C    2000.00000       0.50000       0.50000  L-_CL-_CL-_CL              
                                                                                                                               250.00000       1.40000       0.18000      33.01200       1.45349      16.00000      40.00000      44.00000       6.00000       0.37000       0.32000       0.00000       0.00000       6.50000  