time.sim: written by SWAT+ editor v2.3.3 on 2024-01-09 16:51 for SWAT+ rev.60.5.7
day_start  yrc_start   day_end   yrc_end      step  
       0       2017          0       2020          0 
